<routes>
            <vType accel="1.0" decel="4.5" id="standard_car" length="5.0" minGap="2.5" maxSpeed="25" sigma="0.5" />
            <vType accel="0.5" decel="3.5" id="long_car" length="13.6" minGap="2.5" maxSpeed="20" sigma="0.5" color="0,1,1"/>

            <route id="W_N" edges="W2TL TL2N"/>
            <route id="W_E" edges="W2TL TL2E"/>
            <route id="W_S" edges="W2TL TL2S"/>
            <route id="N_W" edges="N2TL TL2W"/>
            <route id="N_E" edges="N2TL TL2E"/>
            <route id="N_S" edges="N2TL TL2S"/>
            <route id="E_W" edges="E2TL TL2W"/>
            <route id="E_N" edges="E2TL TL2N"/>
            <route id="E_S" edges="E2TL TL2S"/>
            <route id="S_W" edges="S2TL TL2W"/>
            <route id="S_N" edges="S2TL TL2N"/>
            <route id="S_E" edges="S2TL TL2E"/>
    <vehicle id="S_N_0" type="long_car" route="S_N" depart="8.0" departLane="random" departSpeed="10" />
    <vehicle id="E_W_1" type="standard_car" route="E_W" depart="12.0" departLane="random" departSpeed="10" />
    <vehicle id="E_W_2" type="standard_car" route="E_W" depart="18.0" departLane="random" departSpeed="10" />
    <vehicle id="W_E_3" type="standard_car" route="W_E" depart="20.0" departLane="random" departSpeed="10" />
    <vehicle id="N_S_4" type="standard_car" route="N_S" depart="22.0" departLane="random" departSpeed="10" />
    <vehicle id="W_E_5" type="standard_car" route="W_E" depart="28.0" departLane="random" departSpeed="10" />
    <vehicle id="N_S_6" type="standard_car" route="N_S" depart="31.0" departLane="random" departSpeed="10" />
    <vehicle id="E_W_7" type="standard_car" route="E_W" depart="33.0" departLane="random" departSpeed="10" />
    <vehicle id="W_E_8" type="standard_car" route="W_E" depart="33.0" departLane="random" departSpeed="10" />
    <vehicle id="N_S_9" type="standard_car" route="N_S" depart="33.0" departLane="random" departSpeed="10" />
    <vehicle id="W_S_10" type="long_car" route="W_S" depart="39.0" departLane="random" departSpeed="10" />
    <vehicle id="S_N_11" type="standard_car" route="S_N" depart="40.0" departLane="random" departSpeed="10" />
    <vehicle id="E_S_12" type="standard_car" route="E_S" depart="43.0" departLane="random" departSpeed="10" />
    <vehicle id="S_N_13" type="standard_car" route="S_N" depart="45.0" departLane="random" departSpeed="10" />
    <vehicle id="E_W_14" type="standard_car" route="E_W" depart="46.0" departLane="random" departSpeed="10" />
    <vehicle id="E_W_15" type="standard_car" route="E_W" depart="46.0" departLane="random" departSpeed="10" />
    <vehicle id="S_N_16" type="standard_car" route="S_N" depart="47.0" departLane="random" departSpeed="10" />
    <vehicle id="W_E_17" type="standard_car" route="W_E" depart="48.0" departLane="random" departSpeed="10" />
    <vehicle id="W_E_18" type="standard_car" route="W_E" depart="50.0" departLane="random" departSpeed="10" />
    <vehicle id="W_E_19" type="standard_car" route="W_E" depart="50.0" departLane="random" departSpeed="10" />
    <vehicle id="N_S_20" type="standard_car" route="N_S" depart="51.0" departLane="random" departSpeed="10" />
    <vehicle id="E_W_21" type="standard_car" route="E_W" depart="52.0" departLane="random" departSpeed="10" />
    <vehicle id="N_S_22" type="standard_car" route="N_S" depart="52.0" departLane="random" departSpeed="10" />
    <vehicle id="W_E_23" type="standard_car" route="W_E" depart="55.0" departLane="random" departSpeed="10" />
    <vehicle id="E_W_24" type="standard_car" route="E_W" depart="56.0" departLane="random" departSpeed="10" />
    <vehicle id="W_E_25" type="standard_car" route="W_E" depart="56.0" departLane="random" departSpeed="10" />
    <vehicle id="W_E_26" type="standard_car" route="W_E" depart="56.0" departLane="random" departSpeed="10" />
    <vehicle id="W_E_27" type="standard_car" route="W_E" depart="60.0" departLane="random" departSpeed="10" />
    <vehicle id="E_W_28" type="standard_car" route="E_W" depart="63.0" departLane="random" departSpeed="10" />
    <vehicle id="N_S_29" type="standard_car" route="N_S" depart="63.0" departLane="random" departSpeed="10" />
    <vehicle id="E_W_30" type="standard_car" route="E_W" depart="64.0" departLane="random" departSpeed="10" />
    <vehicle id="W_S_31" type="standard_car" route="W_S" depart="66.0" departLane="random" departSpeed="10" />
    <vehicle id="E_S_32" type="long_car" route="E_S" depart="66.0" departLane="random" departSpeed="10" />
    <vehicle id="W_E_33" type="standard_car" route="W_E" depart="67.0" departLane="random" departSpeed="10" />
    <vehicle id="S_N_34" type="standard_car" route="S_N" depart="67.0" departLane="random" departSpeed="10" />
    <vehicle id="N_S_35" type="long_car" route="N_S" depart="70.0" departLane="random" departSpeed="10" />
    <vehicle id="E_W_36" type="standard_car" route="E_W" depart="70.0" departLane="random" departSpeed="10" />
    <vehicle id="W_E_37" type="standard_car" route="W_E" depart="72.0" departLane="random" departSpeed="10" />
    <vehicle id="E_W_38" type="standard_car" route="E_W" depart="74.0" departLane="random" departSpeed="10" />
    <vehicle id="E_W_39" type="standard_car" route="E_W" depart="74.0" departLane="random" departSpeed="10" />
    <vehicle id="N_W_40" type="standard_car" route="N_W" depart="76.0" departLane="random" departSpeed="10" />
    <vehicle id="W_E_41" type="standard_car" route="W_E" depart="77.0" departLane="random" departSpeed="10" />
    <vehicle id="N_S_42" type="standard_car" route="N_S" depart="77.0" departLane="random" departSpeed="10" />
    <vehicle id="E_W_43" type="standard_car" route="E_W" depart="77.0" departLane="random" departSpeed="10" />
    <vehicle id="W_N_44" type="standard_car" route="W_N" depart="77.0" departLane="random" departSpeed="10" />
    <vehicle id="W_N_45" type="standard_car" route="W_N" depart="78.0" departLane="random" departSpeed="10" />
    <vehicle id="W_N_46" type="long_car" route="W_N" depart="79.0" departLane="random" departSpeed="10" />
    <vehicle id="W_E_47" type="standard_car" route="W_E" depart="79.0" departLane="random" departSpeed="10" />
    <vehicle id="S_N_48" type="standard_car" route="S_N" depart="81.0" departLane="random" departSpeed="10" />
    <vehicle id="E_W_49" type="standard_car" route="E_W" depart="82.0" departLane="random" departSpeed="10" />
    <vehicle id="S_E_50" type="long_car" route="S_E" depart="82.0" departLane="random" departSpeed="10" />
    <vehicle id="E_W_51" type="standard_car" route="E_W" depart="83.0" departLane="random" departSpeed="10" />
    <vehicle id="W_E_52" type="standard_car" route="W_E" depart="83.0" departLane="random" departSpeed="10" />
    <vehicle id="S_W_53" type="long_car" route="S_W" depart="84.0" departLane="random" departSpeed="10" />
    <vehicle id="W_E_54" type="standard_car" route="W_E" depart="84.0" departLane="random" departSpeed="10" />
    <vehicle id="W_S_55" type="standard_car" route="W_S" depart="84.0" departLane="random" departSpeed="10" />
    <vehicle id="S_N_56" type="standard_car" route="S_N" depart="86.0" departLane="random" departSpeed="10" />
    <vehicle id="E_W_57" type="standard_car" route="E_W" depart="86.0" departLane="random" departSpeed="10" />
    <vehicle id="E_W_58" type="standard_car" route="E_W" depart="87.0" departLane="random" departSpeed="10" />
    <vehicle id="W_S_59" type="standard_car" route="W_S" depart="87.0" departLane="random" departSpeed="10" />
    <vehicle id="E_W_60" type="standard_car" route="E_W" depart="89.0" departLane="random" departSpeed="10" />
    <vehicle id="E_N_61" type="standard_car" route="E_N" depart="92.0" departLane="random" departSpeed="10" />
    <vehicle id="N_S_62" type="long_car" route="N_S" depart="92.0" departLane="random" departSpeed="10" />
    <vehicle id="N_S_63" type="standard_car" route="N_S" depart="93.0" departLane="random" departSpeed="10" />
    <vehicle id="S_N_64" type="standard_car" route="S_N" depart="94.0" departLane="random" departSpeed="10" />
    <vehicle id="N_E_65" type="long_car" route="N_E" depart="94.0" departLane="random" departSpeed="10" />
    <vehicle id="W_N_66" type="standard_car" route="W_N" depart="95.0" departLane="random" departSpeed="10" />
    <vehicle id="W_E_67" type="standard_car" route="W_E" depart="97.0" departLane="random" departSpeed="10" />
    <vehicle id="E_W_68" type="standard_car" route="E_W" depart="98.0" departLane="random" departSpeed="10" />
    <vehicle id="E_W_69" type="standard_car" route="E_W" depart="98.0" departLane="random" departSpeed="10" />
    <vehicle id="S_N_70" type="standard_car" route="S_N" depart="98.0" departLane="random" departSpeed="10" />
    <vehicle id="W_E_71" type="standard_car" route="W_E" depart="99.0" departLane="random" departSpeed="10" />
    <vehicle id="W_E_72" type="standard_car" route="W_E" depart="102.0" departLane="random" departSpeed="10" />
    <vehicle id="W_E_73" type="standard_car" route="W_E" depart="102.0" departLane="random" departSpeed="10" />
    <vehicle id="S_N_74" type="standard_car" route="S_N" depart="102.0" departLane="random" departSpeed="10" />
    <vehicle id="E_W_75" type="standard_car" route="E_W" depart="104.0" departLane="random" departSpeed="10" />
    <vehicle id="N_S_76" type="standard_car" route="N_S" depart="104.0" departLane="random" departSpeed="10" />
    <vehicle id="E_S_77" type="standard_car" route="E_S" depart="105.0" departLane="random" departSpeed="10" />
    <vehicle id="E_S_78" type="standard_car" route="E_S" depart="106.0" departLane="random" departSpeed="10" />
    <vehicle id="E_N_79" type="standard_car" route="E_N" depart="107.0" departLane="random" departSpeed="10" />
    <vehicle id="N_S_80" type="standard_car" route="N_S" depart="107.0" departLane="random" departSpeed="10" />
    <vehicle id="E_W_81" type="standard_car" route="E_W" depart="107.0" departLane="random" departSpeed="10" />
    <vehicle id="E_W_82" type="standard_car" route="E_W" depart="108.0" departLane="random" departSpeed="10" />
    <vehicle id="W_N_83" type="standard_car" route="W_N" depart="108.0" departLane="random" departSpeed="10" />
    <vehicle id="W_S_84" type="standard_car" route="W_S" depart="109.0" departLane="random" departSpeed="10" />
    <vehicle id="N_E_85" type="standard_car" route="N_E" depart="110.0" departLane="random" departSpeed="10" />
    <vehicle id="N_S_86" type="standard_car" route="N_S" depart="111.0" departLane="random" departSpeed="10" />
    <vehicle id="N_S_87" type="standard_car" route="N_S" depart="112.0" departLane="random" departSpeed="10" />
    <vehicle id="W_E_88" type="standard_car" route="W_E" depart="112.0" departLane="random" departSpeed="10" />
    <vehicle id="W_E_89" type="standard_car" route="W_E" depart="112.0" departLane="random" departSpeed="10" />
    <vehicle id="N_W_90" type="standard_car" route="N_W" depart="113.0" departLane="random" departSpeed="10" />
    <vehicle id="N_S_91" type="standard_car" route="N_S" depart="113.0" departLane="random" departSpeed="10" />
    <vehicle id="W_E_92" type="standard_car" route="W_E" depart="113.0" departLane="random" departSpeed="10" />
    <vehicle id="E_S_93" type="standard_car" route="E_S" depart="113.0" departLane="random" departSpeed="10" />
    <vehicle id="W_E_94" type="standard_car" route="W_E" depart="115.0" departLane="random" departSpeed="10" />
    <vehicle id="W_E_95" type="standard_car" route="W_E" depart="115.0" departLane="random" departSpeed="10" />
    <vehicle id="S_N_96" type="standard_car" route="S_N" depart="117.0" departLane="random" departSpeed="10" />
    <vehicle id="W_E_97" type="standard_car" route="W_E" depart="118.0" departLane="random" departSpeed="10" />
    <vehicle id="N_S_98" type="standard_car" route="N_S" depart="119.0" departLane="random" departSpeed="10" />
    <vehicle id="N_S_99" type="standard_car" route="N_S" depart="119.0" departLane="random" departSpeed="10" />
    <vehicle id="W_S_100" type="standard_car" route="W_S" depart="119.0" departLane="random" departSpeed="10" />
    <vehicle id="W_E_101" type="standard_car" route="W_E" depart="120.0" departLane="random" departSpeed="10" />
    <vehicle id="E_W_102" type="standard_car" route="E_W" depart="120.0" departLane="random" departSpeed="10" />
    <vehicle id="S_N_103" type="standard_car" route="S_N" depart="121.0" departLane="random" departSpeed="10" />
    <vehicle id="W_E_104" type="standard_car" route="W_E" depart="123.0" departLane="random" departSpeed="10" />
    <vehicle id="E_W_105" type="standard_car" route="E_W" depart="123.0" departLane="random" departSpeed="10" />
    <vehicle id="E_N_106" type="standard_car" route="E_N" depart="123.0" departLane="random" departSpeed="10" />
    <vehicle id="W_E_107" type="standard_car" route="W_E" depart="124.0" departLane="random" departSpeed="10" />
    <vehicle id="S_N_108" type="standard_car" route="S_N" depart="124.0" departLane="random" departSpeed="10" />
    <vehicle id="S_N_109" type="standard_car" route="S_N" depart="125.0" departLane="random" departSpeed="10" />
    <vehicle id="S_N_110" type="standard_car" route="S_N" depart="125.0" departLane="random" departSpeed="10" />
    <vehicle id="W_E_111" type="standard_car" route="W_E" depart="126.0" departLane="random" departSpeed="10" />
    <vehicle id="E_W_112" type="standard_car" route="E_W" depart="128.0" departLane="random" departSpeed="10" />
    <vehicle id="N_S_113" type="standard_car" route="N_S" depart="129.0" departLane="random" departSpeed="10" />
    <vehicle id="E_W_114" type="long_car" route="E_W" depart="130.0" departLane="random" departSpeed="10" />
    <vehicle id="S_N_115" type="long_car" route="S_N" depart="130.0" departLane="random" departSpeed="10" />
    <vehicle id="W_E_116" type="long_car" route="W_E" depart="131.0" departLane="random" departSpeed="10" />
    <vehicle id="S_W_117" type="standard_car" route="S_W" depart="132.0" departLane="random" departSpeed="10" />
    <vehicle id="W_E_118" type="standard_car" route="W_E" depart="132.0" departLane="random" departSpeed="10" />
    <vehicle id="E_W_119" type="standard_car" route="E_W" depart="132.0" departLane="random" departSpeed="10" />
    <vehicle id="E_N_120" type="standard_car" route="E_N" depart="133.0" departLane="random" departSpeed="10" />
    <vehicle id="E_W_121" type="standard_car" route="E_W" depart="134.0" departLane="random" departSpeed="10" />
    <vehicle id="W_N_122" type="standard_car" route="W_N" depart="134.0" departLane="random" departSpeed="10" />
    <vehicle id="W_E_123" type="standard_car" route="W_E" depart="134.0" departLane="random" departSpeed="10" />
    <vehicle id="E_W_124" type="standard_car" route="E_W" depart="135.0" departLane="random" departSpeed="10" />
    <vehicle id="N_S_125" type="standard_car" route="N_S" depart="135.0" departLane="random" departSpeed="10" />
    <vehicle id="W_E_126" type="standard_car" route="W_E" depart="136.0" departLane="random" departSpeed="10" />
    <vehicle id="N_S_127" type="standard_car" route="N_S" depart="136.0" departLane="random" departSpeed="10" />
    <vehicle id="W_S_128" type="standard_car" route="W_S" depart="136.0" departLane="random" departSpeed="10" />
    <vehicle id="W_E_129" type="standard_car" route="W_E" depart="137.0" departLane="random" departSpeed="10" />
    <vehicle id="E_W_130" type="long_car" route="E_W" depart="138.0" departLane="random" departSpeed="10" />
    <vehicle id="W_E_131" type="standard_car" route="W_E" depart="138.0" departLane="random" departSpeed="10" />
    <vehicle id="W_E_132" type="standard_car" route="W_E" depart="138.0" departLane="random" departSpeed="10" />
    <vehicle id="W_E_133" type="standard_car" route="W_E" depart="138.0" departLane="random" departSpeed="10" />
    <vehicle id="W_E_134" type="standard_car" route="W_E" depart="138.0" departLane="random" departSpeed="10" />
    <vehicle id="W_E_135" type="standard_car" route="W_E" depart="139.0" departLane="random" departSpeed="10" />
    <vehicle id="E_W_136" type="standard_car" route="E_W" depart="139.0" departLane="random" departSpeed="10" />
    <vehicle id="N_S_137" type="standard_car" route="N_S" depart="140.0" departLane="random" departSpeed="10" />
    <vehicle id="E_W_138" type="standard_car" route="E_W" depart="141.0" departLane="random" departSpeed="10" />
    <vehicle id="S_N_139" type="standard_car" route="S_N" depart="142.0" departLane="random" departSpeed="10" />
    <vehicle id="N_S_140" type="standard_car" route="N_S" depart="142.0" departLane="random" departSpeed="10" />
    <vehicle id="E_S_141" type="standard_car" route="E_S" depart="143.0" departLane="random" departSpeed="10" />
    <vehicle id="W_S_142" type="standard_car" route="W_S" depart="144.0" departLane="random" departSpeed="10" />
    <vehicle id="N_S_143" type="standard_car" route="N_S" depart="144.0" departLane="random" departSpeed="10" />
    <vehicle id="W_E_144" type="long_car" route="W_E" depart="144.0" departLane="random" departSpeed="10" />
    <vehicle id="W_E_145" type="standard_car" route="W_E" depart="145.0" departLane="random" departSpeed="10" />
    <vehicle id="E_W_146" type="standard_car" route="E_W" depart="145.0" departLane="random" departSpeed="10" />
    <vehicle id="E_W_147" type="standard_car" route="E_W" depart="145.0" departLane="random" departSpeed="10" />
    <vehicle id="W_E_148" type="standard_car" route="W_E" depart="146.0" departLane="random" departSpeed="10" />
    <vehicle id="N_S_149" type="standard_car" route="N_S" depart="147.0" departLane="random" departSpeed="10" />
    <vehicle id="W_E_150" type="long_car" route="W_E" depart="147.0" departLane="random" departSpeed="10" />
    <vehicle id="W_E_151" type="standard_car" route="W_E" depart="147.0" departLane="random" departSpeed="10" />
    <vehicle id="W_E_152" type="standard_car" route="W_E" depart="148.0" departLane="random" departSpeed="10" />
    <vehicle id="N_E_153" type="standard_car" route="N_E" depart="149.0" departLane="random" departSpeed="10" />
    <vehicle id="W_E_154" type="standard_car" route="W_E" depart="150.0" departLane="random" departSpeed="10" />
    <vehicle id="N_S_155" type="standard_car" route="N_S" depart="150.0" departLane="random" departSpeed="10" />
    <vehicle id="W_S_156" type="standard_car" route="W_S" depart="150.0" departLane="random" departSpeed="10" />
    <vehicle id="E_W_157" type="standard_car" route="E_W" depart="151.0" departLane="random" departSpeed="10" />
    <vehicle id="W_E_158" type="long_car" route="W_E" depart="151.0" departLane="random" departSpeed="10" />
    <vehicle id="N_S_159" type="standard_car" route="N_S" depart="151.0" departLane="random" departSpeed="10" />
    <vehicle id="N_W_160" type="standard_car" route="N_W" depart="152.0" departLane="random" departSpeed="10" />
    <vehicle id="E_W_161" type="standard_car" route="E_W" depart="153.0" departLane="random" departSpeed="10" />
    <vehicle id="N_S_162" type="standard_car" route="N_S" depart="153.0" departLane="random" departSpeed="10" />
    <vehicle id="W_N_163" type="standard_car" route="W_N" depart="153.0" departLane="random" departSpeed="10" />
    <vehicle id="E_W_164" type="standard_car" route="E_W" depart="154.0" departLane="random" departSpeed="10" />
    <vehicle id="S_N_165" type="standard_car" route="S_N" depart="154.0" departLane="random" departSpeed="10" />
    <vehicle id="W_E_166" type="standard_car" route="W_E" depart="156.0" departLane="random" departSpeed="10" />
    <vehicle id="E_W_167" type="standard_car" route="E_W" depart="156.0" departLane="random" departSpeed="10" />
    <vehicle id="E_W_168" type="standard_car" route="E_W" depart="156.0" departLane="random" departSpeed="10" />
    <vehicle id="S_N_169" type="standard_car" route="S_N" depart="157.0" departLane="random" departSpeed="10" />
    <vehicle id="W_S_170" type="standard_car" route="W_S" depart="157.0" departLane="random" departSpeed="10" />
    <vehicle id="N_S_171" type="standard_car" route="N_S" depart="158.0" departLane="random" departSpeed="10" />
    <vehicle id="N_W_172" type="standard_car" route="N_W" depart="159.0" departLane="random" departSpeed="10" />
    <vehicle id="W_E_173" type="standard_car" route="W_E" depart="159.0" departLane="random" departSpeed="10" />
    <vehicle id="E_W_174" type="standard_car" route="E_W" depart="159.0" departLane="random" departSpeed="10" />
    <vehicle id="N_S_175" type="standard_car" route="N_S" depart="159.0" departLane="random" departSpeed="10" />
    <vehicle id="W_E_176" type="standard_car" route="W_E" depart="159.0" departLane="random" departSpeed="10" />
    <vehicle id="W_E_177" type="standard_car" route="W_E" depart="160.0" departLane="random" departSpeed="10" />
    <vehicle id="W_E_178" type="standard_car" route="W_E" depart="161.0" departLane="random" departSpeed="10" />
    <vehicle id="E_S_179" type="standard_car" route="E_S" depart="162.0" departLane="random" departSpeed="10" />
    <vehicle id="N_S_180" type="standard_car" route="N_S" depart="162.0" departLane="random" departSpeed="10" />
    <vehicle id="N_S_181" type="standard_car" route="N_S" depart="162.0" departLane="random" departSpeed="10" />
    <vehicle id="N_S_182" type="standard_car" route="N_S" depart="163.0" departLane="random" departSpeed="10" />
    <vehicle id="S_N_183" type="standard_car" route="S_N" depart="163.0" departLane="random" departSpeed="10" />
    <vehicle id="E_W_184" type="standard_car" route="E_W" depart="163.0" departLane="random" departSpeed="10" />
    <vehicle id="S_N_185" type="standard_car" route="S_N" depart="163.0" departLane="random" departSpeed="10" />
    <vehicle id="S_N_186" type="long_car" route="S_N" depart="164.0" departLane="random" departSpeed="10" />
    <vehicle id="E_W_187" type="standard_car" route="E_W" depart="164.0" departLane="random" departSpeed="10" />
    <vehicle id="W_E_188" type="standard_car" route="W_E" depart="164.0" departLane="random" departSpeed="10" />
    <vehicle id="N_S_189" type="standard_car" route="N_S" depart="164.0" departLane="random" departSpeed="10" />
    <vehicle id="E_S_190" type="standard_car" route="E_S" depart="165.0" departLane="random" departSpeed="10" />
    <vehicle id="E_N_191" type="standard_car" route="E_N" depart="165.0" departLane="random" departSpeed="10" />
    <vehicle id="E_W_192" type="standard_car" route="E_W" depart="165.0" departLane="random" departSpeed="10" />
    <vehicle id="E_S_193" type="standard_car" route="E_S" depart="166.0" departLane="random" departSpeed="10" />
    <vehicle id="W_E_194" type="standard_car" route="W_E" depart="167.0" departLane="random" departSpeed="10" />
    <vehicle id="S_N_195" type="standard_car" route="S_N" depart="167.0" departLane="random" departSpeed="10" />
    <vehicle id="E_S_196" type="standard_car" route="E_S" depart="167.0" departLane="random" departSpeed="10" />
    <vehicle id="E_S_197" type="standard_car" route="E_S" depart="168.0" departLane="random" departSpeed="10" />
    <vehicle id="W_E_198" type="standard_car" route="W_E" depart="168.0" departLane="random" departSpeed="10" />
    <vehicle id="N_S_199" type="standard_car" route="N_S" depart="168.0" departLane="random" departSpeed="10" />
    <vehicle id="E_N_200" type="standard_car" route="E_N" depart="169.0" departLane="random" departSpeed="10" />
    <vehicle id="E_W_201" type="long_car" route="E_W" depart="169.0" departLane="random" departSpeed="10" />
    <vehicle id="S_N_202" type="standard_car" route="S_N" depart="169.0" departLane="random" departSpeed="10" />
    <vehicle id="N_E_203" type="standard_car" route="N_E" depart="170.0" departLane="random" departSpeed="10" />
    <vehicle id="N_W_204" type="standard_car" route="N_W" depart="170.0" departLane="random" departSpeed="10" />
    <vehicle id="N_S_205" type="standard_car" route="N_S" depart="171.0" departLane="random" departSpeed="10" />
    <vehicle id="E_W_206" type="standard_car" route="E_W" depart="171.0" departLane="random" departSpeed="10" />
    <vehicle id="N_S_207" type="standard_car" route="N_S" depart="171.0" departLane="random" departSpeed="10" />
    <vehicle id="W_E_208" type="standard_car" route="W_E" depart="171.0" departLane="random" departSpeed="10" />
    <vehicle id="N_W_209" type="standard_car" route="N_W" depart="172.0" departLane="random" departSpeed="10" />
    <vehicle id="E_S_210" type="standard_car" route="E_S" depart="172.0" departLane="random" departSpeed="10" />
    <vehicle id="N_S_211" type="standard_car" route="N_S" depart="172.0" departLane="random" departSpeed="10" />
    <vehicle id="W_E_212" type="standard_car" route="W_E" depart="172.0" departLane="random" departSpeed="10" />
    <vehicle id="E_W_213" type="standard_car" route="E_W" depart="172.0" departLane="random" departSpeed="10" />
    <vehicle id="N_S_214" type="standard_car" route="N_S" depart="172.0" departLane="random" departSpeed="10" />
    <vehicle id="E_S_215" type="standard_car" route="E_S" depart="172.0" departLane="random" departSpeed="10" />
    <vehicle id="W_S_216" type="standard_car" route="W_S" depart="173.0" departLane="random" departSpeed="10" />
    <vehicle id="N_S_217" type="standard_car" route="N_S" depart="173.0" departLane="random" departSpeed="10" />
    <vehicle id="N_S_218" type="standard_car" route="N_S" depart="174.0" departLane="random" departSpeed="10" />
    <vehicle id="S_E_219" type="standard_car" route="S_E" depart="175.0" departLane="random" departSpeed="10" />
    <vehicle id="E_W_220" type="standard_car" route="E_W" depart="175.0" departLane="random" departSpeed="10" />
    <vehicle id="W_E_221" type="standard_car" route="W_E" depart="176.0" departLane="random" departSpeed="10" />
    <vehicle id="W_E_222" type="standard_car" route="W_E" depart="176.0" departLane="random" departSpeed="10" />
    <vehicle id="E_W_223" type="standard_car" route="E_W" depart="177.0" departLane="random" departSpeed="10" />
    <vehicle id="S_N_224" type="standard_car" route="S_N" depart="178.0" departLane="random" departSpeed="10" />
    <vehicle id="W_E_225" type="standard_car" route="W_E" depart="179.0" departLane="random" departSpeed="10" />
    <vehicle id="W_E_226" type="standard_car" route="W_E" depart="181.0" departLane="random" departSpeed="10" />
    <vehicle id="S_N_227" type="standard_car" route="S_N" depart="181.0" departLane="random" departSpeed="10" />
    <vehicle id="E_W_228" type="standard_car" route="E_W" depart="181.0" departLane="random" departSpeed="10" />
    <vehicle id="E_W_229" type="standard_car" route="E_W" depart="181.0" departLane="random" departSpeed="10" />
    <vehicle id="W_E_230" type="standard_car" route="W_E" depart="181.0" departLane="random" departSpeed="10" />
    <vehicle id="N_W_231" type="long_car" route="N_W" depart="182.0" departLane="random" departSpeed="10" />
    <vehicle id="E_W_232" type="standard_car" route="E_W" depart="182.0" departLane="random" departSpeed="10" />
    <vehicle id="W_E_233" type="standard_car" route="W_E" depart="183.0" departLane="random" departSpeed="10" />
    <vehicle id="E_W_234" type="standard_car" route="E_W" depart="183.0" departLane="random" departSpeed="10" />
    <vehicle id="W_E_235" type="standard_car" route="W_E" depart="183.0" departLane="random" departSpeed="10" />
    <vehicle id="W_E_236" type="long_car" route="W_E" depart="183.0" departLane="random" departSpeed="10" />
    <vehicle id="E_W_237" type="standard_car" route="E_W" depart="184.0" departLane="random" departSpeed="10" />
    <vehicle id="W_E_238" type="standard_car" route="W_E" depart="184.0" departLane="random" departSpeed="10" />
    <vehicle id="E_W_239" type="standard_car" route="E_W" depart="184.0" departLane="random" departSpeed="10" />
    <vehicle id="N_W_240" type="standard_car" route="N_W" depart="184.0" departLane="random" departSpeed="10" />
    <vehicle id="N_W_241" type="standard_car" route="N_W" depart="184.0" departLane="random" departSpeed="10" />
    <vehicle id="N_W_242" type="standard_car" route="N_W" depart="185.0" departLane="random" departSpeed="10" />
    <vehicle id="E_N_243" type="standard_car" route="E_N" depart="185.0" departLane="random" departSpeed="10" />
    <vehicle id="W_E_244" type="standard_car" route="W_E" depart="186.0" departLane="random" departSpeed="10" />
    <vehicle id="W_E_245" type="standard_car" route="W_E" depart="186.0" departLane="random" departSpeed="10" />
    <vehicle id="E_W_246" type="standard_car" route="E_W" depart="186.0" departLane="random" departSpeed="10" />
    <vehicle id="S_N_247" type="standard_car" route="S_N" depart="186.0" departLane="random" departSpeed="10" />
    <vehicle id="S_N_248" type="standard_car" route="S_N" depart="187.0" departLane="random" departSpeed="10" />
    <vehicle id="N_S_249" type="standard_car" route="N_S" depart="187.0" departLane="random" departSpeed="10" />
    <vehicle id="N_S_250" type="standard_car" route="N_S" depart="187.0" departLane="random" departSpeed="10" />
    <vehicle id="W_S_251" type="standard_car" route="W_S" depart="187.0" departLane="random" departSpeed="10" />
    <vehicle id="N_S_252" type="standard_car" route="N_S" depart="188.0" departLane="random" departSpeed="10" />
    <vehicle id="N_S_253" type="standard_car" route="N_S" depart="188.0" departLane="random" departSpeed="10" />
    <vehicle id="E_W_254" type="standard_car" route="E_W" depart="188.0" departLane="random" departSpeed="10" />
    <vehicle id="E_W_255" type="standard_car" route="E_W" depart="190.0" departLane="random" departSpeed="10" />
    <vehicle id="W_E_256" type="standard_car" route="W_E" depart="190.0" departLane="random" departSpeed="10" />
    <vehicle id="N_S_257" type="standard_car" route="N_S" depart="190.0" departLane="random" departSpeed="10" />
    <vehicle id="N_S_258" type="standard_car" route="N_S" depart="190.0" departLane="random" departSpeed="10" />
    <vehicle id="E_W_259" type="standard_car" route="E_W" depart="191.0" departLane="random" departSpeed="10" />