<routes>
            <vType accel="1.0" decel="4.5" id="standard_car" length="5.0" minGap="2.5" maxSpeed="25" sigma="0.5" />

            <route id="W_N" edges="W2TL TL2N"/>
            <route id="W_E" edges="W2TL TL2E"/>
            <route id="W_S" edges="W2TL TL2S"/>
            <route id="N_W" edges="N2TL TL2W"/>
            <route id="N_E" edges="N2TL TL2E"/>
            <route id="N_S" edges="N2TL TL2S"/>
            <route id="E_W" edges="E2TL TL2W"/>
            <route id="E_N" edges="E2TL TL2N"/>
            <route id="E_S" edges="E2TL TL2S"/>
            <route id="S_W" edges="S2TL TL2W"/>
            <route id="S_N" edges="S2TL TL2N"/>
            <route id="S_E" edges="S2TL TL2E"/>
    <vehicle id="W_E_0" type="standard_car" route="W_E" depart="12.0" departLane="random" departSpeed="10" />
    <vehicle id="W_E_1" type="standard_car" route="W_E" depart="19.0" departLane="random" departSpeed="10" />
    <vehicle id="N_S_2" type="standard_car" route="N_S" depart="26.0" departLane="random" departSpeed="10" />
    <vehicle id="W_E_3" type="standard_car" route="W_E" depart="31.0" departLane="random" departSpeed="10" />
    <vehicle id="E_W_4" type="standard_car" route="E_W" depart="34.0" departLane="random" departSpeed="10" />
    <vehicle id="S_N_5" type="standard_car" route="S_N" depart="36.0" departLane="random" departSpeed="10" />
    <vehicle id="W_E_6" type="standard_car" route="W_E" depart="44.0" departLane="random" departSpeed="10" />
    <vehicle id="E_W_7" type="standard_car" route="E_W" depart="54.0" departLane="random" departSpeed="10" />
    <vehicle id="E_N_8" type="standard_car" route="E_N" depart="54.0" departLane="random" departSpeed="10" />
    <vehicle id="E_W_9" type="standard_car" route="E_W" depart="55.0" departLane="random" departSpeed="10" />
    <vehicle id="W_E_10" type="standard_car" route="W_E" depart="55.0" departLane="random" departSpeed="10" />
    <vehicle id="E_W_11" type="standard_car" route="E_W" depart="58.0" departLane="random" departSpeed="10" />
    <vehicle id="S_N_12" type="standard_car" route="S_N" depart="63.0" departLane="random" departSpeed="10" />
    <vehicle id="S_N_13" type="standard_car" route="S_N" depart="64.0" departLane="random" departSpeed="10" />
    <vehicle id="W_N_14" type="standard_car" route="W_N" depart="64.0" departLane="random" departSpeed="10" />
    <vehicle id="N_S_15" type="standard_car" route="N_S" depart="65.0" departLane="random" departSpeed="10" />
    <vehicle id="E_W_16" type="standard_car" route="E_W" depart="68.0" departLane="random" departSpeed="10" />
    <vehicle id="S_N_17" type="standard_car" route="S_N" depart="69.0" departLane="random" departSpeed="10" />
    <vehicle id="N_S_18" type="standard_car" route="N_S" depart="69.0" departLane="random" departSpeed="10" />
    <vehicle id="N_S_19" type="standard_car" route="N_S" depart="70.0" departLane="random" departSpeed="10" />
    <vehicle id="E_W_20" type="standard_car" route="E_W" depart="71.0" departLane="random" departSpeed="10" />
    <vehicle id="E_S_21" type="standard_car" route="E_S" depart="71.0" departLane="random" departSpeed="10" />
    <vehicle id="S_E_22" type="standard_car" route="S_E" depart="72.0" departLane="random" departSpeed="10" />
    <vehicle id="W_S_23" type="standard_car" route="W_S" depart="78.0" departLane="random" departSpeed="10" />
    <vehicle id="N_S_24" type="standard_car" route="N_S" depart="79.0" departLane="random" departSpeed="10" />
    <vehicle id="N_S_25" type="standard_car" route="N_S" depart="81.0" departLane="random" departSpeed="10" />
    <vehicle id="S_N_26" type="standard_car" route="S_N" depart="86.0" departLane="random" departSpeed="10" />
    <vehicle id="N_S_27" type="standard_car" route="N_S" depart="86.0" departLane="random" departSpeed="10" />
    <vehicle id="E_W_28" type="standard_car" route="E_W" depart="87.0" departLane="random" departSpeed="10" />
    <vehicle id="N_S_29" type="standard_car" route="N_S" depart="88.0" departLane="random" departSpeed="10" />
    <vehicle id="W_E_30" type="standard_car" route="W_E" depart="90.0" departLane="random" departSpeed="10" />
    <vehicle id="N_S_31" type="standard_car" route="N_S" depart="92.0" departLane="random" departSpeed="10" />
    <vehicle id="E_W_32" type="standard_car" route="E_W" depart="92.0" departLane="random" departSpeed="10" />
    <vehicle id="N_E_33" type="standard_car" route="N_E" depart="95.0" departLane="random" departSpeed="10" />
    <vehicle id="S_W_34" type="standard_car" route="S_W" depart="96.0" departLane="random" departSpeed="10" />
    <vehicle id="E_S_35" type="standard_car" route="E_S" depart="99.0" departLane="random" departSpeed="10" />
    <vehicle id="W_E_36" type="standard_car" route="W_E" depart="100.0" departLane="random" departSpeed="10" />
    <vehicle id="N_W_37" type="standard_car" route="N_W" depart="101.0" departLane="random" departSpeed="10" />
    <vehicle id="E_W_38" type="standard_car" route="E_W" depart="101.0" departLane="random" departSpeed="10" />
    <vehicle id="S_N_39" type="standard_car" route="S_N" depart="105.0" departLane="random" departSpeed="10" />
    <vehicle id="S_N_40" type="standard_car" route="S_N" depart="107.0" departLane="random" departSpeed="10" />
    <vehicle id="E_W_41" type="standard_car" route="E_W" depart="109.0" departLane="random" departSpeed="10" />
    <vehicle id="N_S_42" type="standard_car" route="N_S" depart="109.0" departLane="random" departSpeed="10" />
    <vehicle id="W_N_43" type="standard_car" route="W_N" depart="112.0" departLane="random" departSpeed="10" />
    <vehicle id="W_S_44" type="standard_car" route="W_S" depart="112.0" departLane="random" departSpeed="10" />
    <vehicle id="N_S_45" type="standard_car" route="N_S" depart="117.0" departLane="random" departSpeed="10" />
    <vehicle id="E_W_46" type="standard_car" route="E_W" depart="118.0" departLane="random" departSpeed="10" />
    <vehicle id="N_S_47" type="standard_car" route="N_S" depart="119.0" departLane="random" departSpeed="10" />
    <vehicle id="W_E_48" type="standard_car" route="W_E" depart="121.0" departLane="random" departSpeed="10" />
    <vehicle id="S_W_49" type="standard_car" route="S_W" depart="121.0" departLane="random" departSpeed="10" />
    <vehicle id="N_E_50" type="standard_car" route="N_E" depart="122.0" departLane="random" departSpeed="10" />
    <vehicle id="S_N_51" type="standard_car" route="S_N" depart="123.0" departLane="random" departSpeed="10" />
    <vehicle id="S_N_52" type="standard_car" route="S_N" depart="123.0" departLane="random" departSpeed="10" />
    <vehicle id="W_E_53" type="standard_car" route="W_E" depart="124.0" departLane="random" departSpeed="10" />
    <vehicle id="S_N_54" type="standard_car" route="S_N" depart="124.0" departLane="random" departSpeed="10" />
    <vehicle id="E_W_55" type="standard_car" route="E_W" depart="125.0" departLane="random" departSpeed="10" />
    <vehicle id="E_W_56" type="standard_car" route="E_W" depart="126.0" departLane="random" departSpeed="10" />
    <vehicle id="W_E_57" type="standard_car" route="W_E" depart="127.0" departLane="random" departSpeed="10" />
    <vehicle id="N_S_58" type="standard_car" route="N_S" depart="127.0" departLane="random" departSpeed="10" />
    <vehicle id="N_E_59" type="standard_car" route="N_E" depart="128.0" departLane="random" departSpeed="10" />
    <vehicle id="N_S_60" type="standard_car" route="N_S" depart="128.0" departLane="random" departSpeed="10" />
    <vehicle id="E_W_61" type="standard_car" route="E_W" depart="129.0" departLane="random" departSpeed="10" />
    <vehicle id="E_W_62" type="standard_car" route="E_W" depart="129.0" departLane="random" departSpeed="10" />
    <vehicle id="N_S_63" type="standard_car" route="N_S" depart="130.0" departLane="random" departSpeed="10" />
    <vehicle id="E_W_64" type="standard_car" route="E_W" depart="130.0" departLane="random" departSpeed="10" />
    <vehicle id="S_N_65" type="standard_car" route="S_N" depart="131.0" departLane="random" departSpeed="10" />
    <vehicle id="S_W_66" type="standard_car" route="S_W" depart="132.0" departLane="random" departSpeed="10" />
    <vehicle id="S_W_67" type="standard_car" route="S_W" depart="133.0" departLane="random" departSpeed="10" />
    <vehicle id="N_S_68" type="standard_car" route="N_S" depart="134.0" departLane="random" departSpeed="10" />
    <vehicle id="W_E_69" type="standard_car" route="W_E" depart="134.0" departLane="random" departSpeed="10" />
    <vehicle id="N_S_70" type="standard_car" route="N_S" depart="134.0" departLane="random" departSpeed="10" />
    <vehicle id="N_W_71" type="standard_car" route="N_W" depart="135.0" departLane="random" departSpeed="10" />
    <vehicle id="E_W_72" type="standard_car" route="E_W" depart="136.0" departLane="random" departSpeed="10" />
    <vehicle id="E_W_73" type="standard_car" route="E_W" depart="136.0" departLane="random" departSpeed="10" />
    <vehicle id="W_N_74" type="standard_car" route="W_N" depart="140.0" departLane="random" departSpeed="10" />
    <vehicle id="E_S_75" type="standard_car" route="E_S" depart="141.0" departLane="random" departSpeed="10" />
    <vehicle id="E_W_76" type="standard_car" route="E_W" depart="141.0" departLane="random" departSpeed="10" />
    <vehicle id="W_S_77" type="standard_car" route="W_S" depart="144.0" departLane="random" departSpeed="10" />
    <vehicle id="N_E_78" type="standard_car" route="N_E" depart="145.0" departLane="random" departSpeed="10" />
    <vehicle id="E_W_79" type="standard_car" route="E_W" depart="145.0" departLane="random" departSpeed="10" />
    <vehicle id="W_E_80" type="standard_car" route="W_E" depart="146.0" departLane="random" departSpeed="10" />
    <vehicle id="N_S_81" type="standard_car" route="N_S" depart="148.0" departLane="random" departSpeed="10" />
    <vehicle id="S_N_82" type="standard_car" route="S_N" depart="149.0" departLane="random" departSpeed="10" />
    <vehicle id="W_E_83" type="standard_car" route="W_E" depart="151.0" departLane="random" departSpeed="10" />
    <vehicle id="S_N_84" type="standard_car" route="S_N" depart="153.0" departLane="random" departSpeed="10" />
    <vehicle id="E_S_85" type="standard_car" route="E_S" depart="153.0" departLane="random" departSpeed="10" />
    <vehicle id="N_W_86" type="standard_car" route="N_W" depart="154.0" departLane="random" departSpeed="10" />
    <vehicle id="N_S_87" type="standard_car" route="N_S" depart="157.0" departLane="random" departSpeed="10" />
    <vehicle id="W_S_88" type="standard_car" route="W_S" depart="159.0" departLane="random" departSpeed="10" />
    <vehicle id="E_W_89" type="standard_car" route="E_W" depart="159.0" departLane="random" departSpeed="10" />
    <vehicle id="N_S_90" type="standard_car" route="N_S" depart="160.0" departLane="random" departSpeed="10" />
    <vehicle id="E_N_91" type="standard_car" route="E_N" depart="160.0" departLane="random" departSpeed="10" />
    <vehicle id="S_E_92" type="standard_car" route="S_E" depart="160.0" departLane="random" departSpeed="10" />
    <vehicle id="N_S_93" type="standard_car" route="N_S" depart="160.0" departLane="random" departSpeed="10" />
    <vehicle id="W_N_94" type="standard_car" route="W_N" depart="160.0" departLane="random" departSpeed="10" />
    <vehicle id="S_N_95" type="standard_car" route="S_N" depart="160.0" departLane="random" departSpeed="10" />
    <vehicle id="W_E_96" type="standard_car" route="W_E" depart="162.0" departLane="random" departSpeed="10" />
    <vehicle id="W_E_97" type="standard_car" route="W_E" depart="162.0" departLane="random" departSpeed="10" />
    <vehicle id="W_E_98" type="standard_car" route="W_E" depart="162.0" departLane="random" departSpeed="10" />
    <vehicle id="W_E_99" type="standard_car" route="W_E" depart="162.0" departLane="random" departSpeed="10" />
    <vehicle id="S_N_100" type="standard_car" route="S_N" depart="163.0" departLane="random" departSpeed="10" />
    <vehicle id="W_E_101" type="standard_car" route="W_E" depart="164.0" departLane="random" departSpeed="10" />
    <vehicle id="W_E_102" type="standard_car" route="W_E" depart="164.0" departLane="random" departSpeed="10" />
    <vehicle id="W_E_103" type="standard_car" route="W_E" depart="165.0" departLane="random" departSpeed="10" />
    <vehicle id="S_N_104" type="standard_car" route="S_N" depart="166.0" departLane="random" departSpeed="10" />
    <vehicle id="E_W_105" type="standard_car" route="E_W" depart="167.0" departLane="random" departSpeed="10" />
    <vehicle id="S_N_106" type="standard_car" route="S_N" depart="168.0" departLane="random" departSpeed="10" />
    <vehicle id="E_W_107" type="standard_car" route="E_W" depart="168.0" departLane="random" departSpeed="10" />
    <vehicle id="S_N_108" type="standard_car" route="S_N" depart="169.0" departLane="random" departSpeed="10" />
    <vehicle id="E_W_109" type="standard_car" route="E_W" depart="171.0" departLane="random" departSpeed="10" />
    <vehicle id="S_W_110" type="standard_car" route="S_W" depart="171.0" departLane="random" departSpeed="10" />
    <vehicle id="E_W_111" type="standard_car" route="E_W" depart="171.0" departLane="random" departSpeed="10" />
    <vehicle id="N_E_112" type="standard_car" route="N_E" depart="172.0" departLane="random" departSpeed="10" />
    <vehicle id="N_S_113" type="standard_car" route="N_S" depart="173.0" departLane="random" departSpeed="10" />
    <vehicle id="W_N_114" type="standard_car" route="W_N" depart="175.0" departLane="random" departSpeed="10" />
    <vehicle id="E_S_115" type="standard_car" route="E_S" depart="175.0" departLane="random" departSpeed="10" />
    <vehicle id="N_S_116" type="standard_car" route="N_S" depart="175.0" departLane="random" departSpeed="10" />
    <vehicle id="N_S_117" type="standard_car" route="N_S" depart="175.0" departLane="random" departSpeed="10" />
    <vehicle id="W_E_118" type="standard_car" route="W_E" depart="175.0" departLane="random" departSpeed="10" />
    <vehicle id="N_S_119" type="standard_car" route="N_S" depart="177.0" departLane="random" departSpeed="10" />
    <vehicle id="W_S_120" type="standard_car" route="W_S" depart="177.0" departLane="random" departSpeed="10" />
    <vehicle id="N_S_121" type="standard_car" route="N_S" depart="177.0" departLane="random" departSpeed="10" />
    <vehicle id="W_E_122" type="standard_car" route="W_E" depart="177.0" departLane="random" departSpeed="10" />
    <vehicle id="E_W_123" type="standard_car" route="E_W" depart="177.0" departLane="random" departSpeed="10" />
    <vehicle id="S_N_124" type="standard_car" route="S_N" depart="177.0" departLane="random" departSpeed="10" />
    <vehicle id="S_N_125" type="standard_car" route="S_N" depart="178.0" departLane="random" departSpeed="10" />
    <vehicle id="E_N_126" type="standard_car" route="E_N" depart="179.0" departLane="random" departSpeed="10" />
    <vehicle id="S_N_127" type="standard_car" route="S_N" depart="179.0" departLane="random" departSpeed="10" />
    <vehicle id="W_E_128" type="standard_car" route="W_E" depart="182.0" departLane="random" departSpeed="10" />
    <vehicle id="S_W_129" type="standard_car" route="S_W" depart="186.0" departLane="random" departSpeed="10" />
    <vehicle id="S_N_130" type="standard_car" route="S_N" depart="186.0" departLane="random" departSpeed="10" />
    <vehicle id="N_S_131" type="standard_car" route="N_S" depart="187.0" departLane="random" departSpeed="10" />
    <vehicle id="N_S_132" type="standard_car" route="N_S" depart="188.0" departLane="random" departSpeed="10" />
    <vehicle id="W_S_133" type="standard_car" route="W_S" depart="188.0" departLane="random" departSpeed="10" />
    <vehicle id="N_E_134" type="standard_car" route="N_E" depart="188.0" departLane="random" departSpeed="10" />
    <vehicle id="N_S_135" type="standard_car" route="N_S" depart="188.0" departLane="random" departSpeed="10" />
    <vehicle id="W_E_136" type="standard_car" route="W_E" depart="188.0" departLane="random" departSpeed="10" />
    <vehicle id="W_S_137" type="standard_car" route="W_S" depart="189.0" departLane="random" departSpeed="10" />
    <vehicle id="E_W_138" type="standard_car" route="E_W" depart="189.0" departLane="random" departSpeed="10" />
    <vehicle id="S_N_139" type="standard_car" route="S_N" depart="191.0" departLane="random" departSpeed="10" />
    <vehicle id="S_N_140" type="standard_car" route="S_N" depart="192.0" departLane="random" departSpeed="10" />
    <vehicle id="N_S_141" type="standard_car" route="N_S" depart="193.0" departLane="random" departSpeed="10" />
    <vehicle id="E_W_142" type="standard_car" route="E_W" depart="193.0" departLane="random" departSpeed="10" />
    <vehicle id="E_W_143" type="standard_car" route="E_W" depart="194.0" departLane="random" departSpeed="10" />
    <vehicle id="S_N_144" type="standard_car" route="S_N" depart="194.0" departLane="random" departSpeed="10" />
    <vehicle id="N_E_145" type="standard_car" route="N_E" depart="195.0" departLane="random" departSpeed="10" />
    <vehicle id="S_N_146" type="standard_car" route="S_N" depart="197.0" departLane="random" departSpeed="10" />
    <vehicle id="W_E_147" type="standard_car" route="W_E" depart="198.0" departLane="random" departSpeed="10" />
    <vehicle id="W_N_148" type="standard_car" route="W_N" depart="199.0" departLane="random" departSpeed="10" />
    <vehicle id="W_S_149" type="standard_car" route="W_S" depart="200.0" departLane="random" departSpeed="10" />
    <vehicle id="S_N_150" type="standard_car" route="S_N" depart="200.0" departLane="random" departSpeed="10" />
    <vehicle id="W_E_151" type="standard_car" route="W_E" depart="200.0" departLane="random" departSpeed="10" />
    <vehicle id="E_W_152" type="standard_car" route="E_W" depart="200.0" departLane="random" departSpeed="10" />
    <vehicle id="N_S_153" type="standard_car" route="N_S" depart="201.0" departLane="random" departSpeed="10" />
    <vehicle id="N_S_154" type="standard_car" route="N_S" depart="202.0" departLane="random" departSpeed="10" />
    <vehicle id="S_E_155" type="standard_car" route="S_E" depart="203.0" departLane="random" departSpeed="10" />
    <vehicle id="S_W_156" type="standard_car" route="S_W" depart="204.0" departLane="random" departSpeed="10" />
    <vehicle id="N_S_157" type="standard_car" route="N_S" depart="206.0" departLane="random" departSpeed="10" />
    <vehicle id="W_S_158" type="standard_car" route="W_S" depart="208.0" departLane="random" departSpeed="10" />
    <vehicle id="E_W_159" type="standard_car" route="E_W" depart="208.0" departLane="random" departSpeed="10" />
    <vehicle id="S_N_160" type="standard_car" route="S_N" depart="208.0" departLane="random" departSpeed="10" />
    <vehicle id="N_S_161" type="standard_car" route="N_S" depart="209.0" departLane="random" departSpeed="10" />
    <vehicle id="S_N_162" type="standard_car" route="S_N" depart="209.0" departLane="random" departSpeed="10" />
    <vehicle id="E_W_163" type="standard_car" route="E_W" depart="209.0" departLane="random" departSpeed="10" />
    <vehicle id="N_S_164" type="standard_car" route="N_S" depart="209.0" departLane="random" departSpeed="10" />
    <vehicle id="E_W_165" type="standard_car" route="E_W" depart="210.0" departLane="random" departSpeed="10" />
    <vehicle id="E_W_166" type="standard_car" route="E_W" depart="210.0" departLane="random" departSpeed="10" />
    <vehicle id="E_N_167" type="standard_car" route="E_N" depart="210.0" departLane="random" departSpeed="10" />
    <vehicle id="E_S_168" type="standard_car" route="E_S" depart="211.0" departLane="random" departSpeed="10" />
    <vehicle id="S_N_169" type="standard_car" route="S_N" depart="211.0" departLane="random" departSpeed="10" />
    <vehicle id="W_N_170" type="standard_car" route="W_N" depart="212.0" departLane="random" departSpeed="10" />
    <vehicle id="E_W_171" type="standard_car" route="E_W" depart="213.0" departLane="random" departSpeed="10" />
    <vehicle id="S_N_172" type="standard_car" route="S_N" depart="215.0" departLane="random" departSpeed="10" />
    <vehicle id="S_W_173" type="standard_car" route="S_W" depart="217.0" departLane="random" departSpeed="10" />
    <vehicle id="N_S_174" type="standard_car" route="N_S" depart="217.0" departLane="random" departSpeed="10" />
    <vehicle id="S_N_175" type="standard_car" route="S_N" depart="218.0" departLane="random" departSpeed="10" />
    <vehicle id="E_W_176" type="standard_car" route="E_W" depart="219.0" departLane="random" departSpeed="10" />
    <vehicle id="E_W_177" type="standard_car" route="E_W" depart="219.0" departLane="random" departSpeed="10" />
    <vehicle id="S_N_178" type="standard_car" route="S_N" depart="220.0" departLane="random" departSpeed="10" />
    <vehicle id="S_N_179" type="standard_car" route="S_N" depart="220.0" departLane="random" departSpeed="10" />
    <vehicle id="E_W_180" type="standard_car" route="E_W" depart="221.0" departLane="random" departSpeed="10" />
    <vehicle id="S_N_181" type="standard_car" route="S_N" depart="222.0" departLane="random" departSpeed="10" />
    <vehicle id="E_N_182" type="standard_car" route="E_N" depart="222.0" departLane="random" departSpeed="10" />
    <vehicle id="S_N_183" type="standard_car" route="S_N" depart="223.0" departLane="random" departSpeed="10" />
    <vehicle id="N_S_184" type="standard_car" route="N_S" depart="224.0" departLane="random" departSpeed="10" />
    <vehicle id="S_N_185" type="standard_car" route="S_N" depart="225.0" departLane="random" departSpeed="10" />
    <vehicle id="N_S_186" type="standard_car" route="N_S" depart="225.0" departLane="random" departSpeed="10" />
    <vehicle id="W_N_187" type="standard_car" route="W_N" depart="225.0" departLane="random" departSpeed="10" />
    <vehicle id="N_S_188" type="standard_car" route="N_S" depart="226.0" departLane="random" departSpeed="10" />
    <vehicle id="E_W_189" type="standard_car" route="E_W" depart="226.0" departLane="random" departSpeed="10" />
    <vehicle id="N_S_190" type="standard_car" route="N_S" depart="227.0" departLane="random" departSpeed="10" />
    <vehicle id="W_E_191" type="standard_car" route="W_E" depart="227.0" departLane="random" departSpeed="10" />
    <vehicle id="N_W_192" type="standard_car" route="N_W" depart="228.0" departLane="random" departSpeed="10" />
    <vehicle id="N_S_193" type="standard_car" route="N_S" depart="229.0" departLane="random" departSpeed="10" />
    <vehicle id="N_S_194" type="standard_car" route="N_S" depart="230.0" departLane="random" departSpeed="10" />
    <vehicle id="N_E_195" type="standard_car" route="N_E" depart="234.0" departLane="random" departSpeed="10" />
    <vehicle id="S_N_196" type="standard_car" route="S_N" depart="234.0" departLane="random" departSpeed="10" />
    <vehicle id="S_N_197" type="standard_car" route="S_N" depart="234.0" departLane="random" departSpeed="10" />
    <vehicle id="N_E_198" type="standard_car" route="N_E" depart="236.0" departLane="random" departSpeed="10" />
    <vehicle id="S_N_199" type="standard_car" route="S_N" depart="236.0" departLane="random" departSpeed="10" />
    <vehicle id="S_N_200" type="standard_car" route="S_N" depart="239.0" departLane="random" departSpeed="10" />
    <vehicle id="S_N_201" type="standard_car" route="S_N" depart="241.0" departLane="random" departSpeed="10" />
    <vehicle id="W_E_202" type="standard_car" route="W_E" depart="242.0" departLane="random" departSpeed="10" />
    <vehicle id="N_S_203" type="standard_car" route="N_S" depart="242.0" departLane="random" departSpeed="10" />
    <vehicle id="W_E_204" type="standard_car" route="W_E" depart="243.0" departLane="random" departSpeed="10" />
    <vehicle id="E_W_205" type="standard_car" route="E_W" depart="243.0" departLane="random" departSpeed="10" />
    <vehicle id="W_E_206" type="standard_car" route="W_E" depart="243.0" departLane="random" departSpeed="10" />
    <vehicle id="N_S_207" type="standard_car" route="N_S" depart="244.0" departLane="random" departSpeed="10" />
    <vehicle id="S_N_208" type="standard_car" route="S_N" depart="244.0" departLane="random" departSpeed="10" />
    <vehicle id="E_W_209" type="standard_car" route="E_W" depart="245.0" departLane="random" departSpeed="10" />
    <vehicle id="S_E_210" type="standard_car" route="S_E" depart="245.0" departLane="random" departSpeed="10" />
    <vehicle id="S_N_211" type="standard_car" route="S_N" depart="246.0" departLane="random" departSpeed="10" />
    <vehicle id="E_W_212" type="standard_car" route="E_W" depart="246.0" departLane="random" departSpeed="10" />
    <vehicle id="W_E_213" type="standard_car" route="W_E" depart="247.0" departLane="random" departSpeed="10" />
    <vehicle id="W_E_214" type="standard_car" route="W_E" depart="247.0" departLane="random" departSpeed="10" />
    <vehicle id="S_W_215" type="standard_car" route="S_W" depart="247.0" departLane="random" departSpeed="10" />
    <vehicle id="N_E_216" type="standard_car" route="N_E" depart="248.0" departLane="random" departSpeed="10" />
    <vehicle id="E_N_217" type="standard_car" route="E_N" depart="249.0" departLane="random" departSpeed="10" />
    <vehicle id="S_N_218" type="standard_car" route="S_N" depart="250.0" departLane="random" departSpeed="10" />
    <vehicle id="N_S_219" type="standard_car" route="N_S" depart="250.0" departLane="random" departSpeed="10" />
    <vehicle id="S_N_220" type="standard_car" route="S_N" depart="251.0" departLane="random" departSpeed="10" />
    <vehicle id="E_W_221" type="standard_car" route="E_W" depart="251.0" departLane="random" departSpeed="10" />
    <vehicle id="E_N_222" type="standard_car" route="E_N" depart="252.0" departLane="random" departSpeed="10" />
    <vehicle id="E_N_223" type="standard_car" route="E_N" depart="252.0" departLane="random" departSpeed="10" />
    <vehicle id="N_S_224" type="standard_car" route="N_S" depart="254.0" departLane="random" departSpeed="10" />
    <vehicle id="W_N_225" type="standard_car" route="W_N" depart="254.0" departLane="random" departSpeed="10" />
    <vehicle id="N_E_226" type="standard_car" route="N_E" depart="254.0" departLane="random" departSpeed="10" />
    <vehicle id="S_N_227" type="standard_car" route="S_N" depart="255.0" departLane="random" departSpeed="10" />
    <vehicle id="N_S_228" type="standard_car" route="N_S" depart="255.0" departLane="random" departSpeed="10" />
    <vehicle id="E_W_229" type="standard_car" route="E_W" depart="257.0" departLane="random" departSpeed="10" />
    <vehicle id="N_W_230" type="standard_car" route="N_W" depart="257.0" departLane="random" departSpeed="10" />
    <vehicle id="W_E_231" type="standard_car" route="W_E" depart="257.0" departLane="random" departSpeed="10" />
    <vehicle id="W_E_232" type="standard_car" route="W_E" depart="257.0" departLane="random" departSpeed="10" />
    <vehicle id="W_E_233" type="standard_car" route="W_E" depart="258.0" departLane="random" departSpeed="10" />
    <vehicle id="S_N_234" type="standard_car" route="S_N" depart="261.0" departLane="random" departSpeed="10" />
    <vehicle id="N_S_235" type="standard_car" route="N_S" depart="261.0" departLane="random" departSpeed="10" />
    <vehicle id="E_S_236" type="standard_car" route="E_S" depart="261.0" departLane="random" departSpeed="10" />
    <vehicle id="W_E_237" type="standard_car" route="W_E" depart="261.0" departLane="random" departSpeed="10" />
    <vehicle id="E_W_238" type="standard_car" route="E_W" depart="262.0" departLane="random" departSpeed="10" />
    <vehicle id="S_N_239" type="standard_car" route="S_N" depart="262.0" departLane="random" departSpeed="10" />
    <vehicle id="S_N_240" type="standard_car" route="S_N" depart="263.0" departLane="random" departSpeed="10" />
    <vehicle id="W_E_241" type="standard_car" route="W_E" depart="263.0" departLane="random" departSpeed="10" />
    <vehicle id="S_N_242" type="standard_car" route="S_N" depart="263.0" departLane="random" departSpeed="10" />
    <vehicle id="W_S_243" type="standard_car" route="W_S" depart="263.0" departLane="random" departSpeed="10" />
    <vehicle id="N_S_244" type="standard_car" route="N_S" depart="265.0" departLane="random" departSpeed="10" />
    <vehicle id="N_S_245" type="standard_car" route="N_S" depart="265.0" departLane="random" departSpeed="10" />
    <vehicle id="S_E_246" type="standard_car" route="S_E" depart="265.0" departLane="random" departSpeed="10" />
    <vehicle id="N_S_247" type="standard_car" route="N_S" depart="266.0" departLane="random" departSpeed="10" />
    <vehicle id="N_E_248" type="standard_car" route="N_E" depart="266.0" departLane="random" departSpeed="10" />
    <vehicle id="N_S_249" type="standard_car" route="N_S" depart="267.0" departLane="random" departSpeed="10" />
    <vehicle id="N_W_250" type="standard_car" route="N_W" depart="267.0" departLane="random" departSpeed="10" />
    <vehicle id="E_W_251" type="standard_car" route="E_W" depart="267.0" departLane="random" departSpeed="10" />
    <vehicle id="E_N_252" type="standard_car" route="E_N" depart="267.0" departLane="random" departSpeed="10" />
    <vehicle id="S_N_253" type="standard_car" route="S_N" depart="268.0" departLane="random" departSpeed="10" />
    <vehicle id="S_N_254" type="standard_car" route="S_N" depart="268.0" departLane="random" departSpeed="10" />
    <vehicle id="S_N_255" type="standard_car" route="S_N" depart="269.0" departLane="random" departSpeed="10" />
    <vehicle id="S_N_256" type="standard_car" route="S_N" depart="270.0" departLane="random" departSpeed="10" />
    <vehicle id="S_E_257" type="standard_car" route="S_E" depart="270.0" departLane="random" departSpeed="10" />
    <vehicle id="W_E_258" type="standard_car" route="W_E" depart="270.0" departLane="random" departSpeed="10" />
    <vehicle id="E_W_259" type="standard_car" route="E_W" depart="271.0" departLane="random" departSpeed="10" />