<routes>
            <vType accel="1.0" decel="4.5" id="standard_car" length="5.0" minGap="2.5" maxSpeed="25" sigma="0.5" />

            <route id="W_N" edges="W2TL TL2N"/>
            <route id="W_E" edges="W2TL TL2E"/>
            <route id="W_S" edges="W2TL TL2S"/>
            <route id="N_W" edges="N2TL TL2W"/>
            <route id="N_E" edges="N2TL TL2E"/>
            <route id="N_S" edges="N2TL TL2S"/>
            <route id="E_W" edges="E2TL TL2W"/>
            <route id="E_N" edges="E2TL TL2N"/>
            <route id="E_S" edges="E2TL TL2S"/>
            <route id="S_W" edges="S2TL TL2W"/>
            <route id="S_N" edges="S2TL TL2N"/>
            <route id="S_E" edges="S2TL TL2E"/>
    <vehicle id="E_W_0" type="standard_car" route="E_W" depart="11.0" departLane="random" departSpeed="10" />
    <vehicle id="S_N_1" type="standard_car" route="S_N" depart="20.0" departLane="random" departSpeed="10" />
    <vehicle id="W_E_2" type="standard_car" route="W_E" depart="28.0" departLane="random" departSpeed="10" />
    <vehicle id="W_N_3" type="standard_car" route="W_N" depart="32.0" departLane="random" departSpeed="10" />
    <vehicle id="S_N_4" type="standard_car" route="S_N" depart="54.0" departLane="random" departSpeed="10" />
    <vehicle id="W_S_5" type="standard_car" route="W_S" depart="55.0" departLane="random" departSpeed="10" />
    <vehicle id="N_S_6" type="standard_car" route="N_S" depart="56.0" departLane="random" departSpeed="10" />
    <vehicle id="N_S_7" type="standard_car" route="N_S" depart="60.0" departLane="random" departSpeed="10" />
    <vehicle id="W_E_8" type="standard_car" route="W_E" depart="62.0" departLane="random" departSpeed="10" />
    <vehicle id="N_S_9" type="standard_car" route="N_S" depart="72.0" departLane="random" departSpeed="10" />
    <vehicle id="N_W_10" type="standard_car" route="N_W" depart="73.0" departLane="random" departSpeed="10" />
    <vehicle id="S_W_11" type="standard_car" route="S_W" depart="76.0" departLane="random" departSpeed="10" />
    <vehicle id="N_S_12" type="standard_car" route="N_S" depart="86.0" departLane="random" departSpeed="10" />
    <vehicle id="W_E_13" type="standard_car" route="W_E" depart="89.0" departLane="random" departSpeed="10" />
    <vehicle id="W_N_14" type="standard_car" route="W_N" depart="92.0" departLane="random" departSpeed="10" />
    <vehicle id="W_S_15" type="standard_car" route="W_S" depart="95.0" departLane="random" departSpeed="10" />
    <vehicle id="S_N_16" type="standard_car" route="S_N" depart="97.0" departLane="random" departSpeed="10" />
    <vehicle id="E_W_17" type="standard_car" route="E_W" depart="100.0" departLane="random" departSpeed="10" />
    <vehicle id="S_N_18" type="standard_car" route="S_N" depart="101.0" departLane="random" departSpeed="10" />
    <vehicle id="S_N_19" type="standard_car" route="S_N" depart="102.0" departLane="random" departSpeed="10" />
    <vehicle id="S_N_20" type="standard_car" route="S_N" depart="104.0" departLane="random" departSpeed="10" />
    <vehicle id="W_S_21" type="standard_car" route="W_S" depart="105.0" departLane="random" departSpeed="10" />
    <vehicle id="E_S_22" type="standard_car" route="E_S" depart="108.0" departLane="random" departSpeed="10" />
    <vehicle id="N_S_23" type="standard_car" route="N_S" depart="110.0" departLane="random" departSpeed="10" />
    <vehicle id="N_S_24" type="standard_car" route="N_S" depart="112.0" departLane="random" departSpeed="10" />
    <vehicle id="S_N_25" type="standard_car" route="S_N" depart="113.0" departLane="random" departSpeed="10" />
    <vehicle id="E_W_26" type="standard_car" route="E_W" depart="115.0" departLane="random" departSpeed="10" />
    <vehicle id="N_S_27" type="standard_car" route="N_S" depart="116.0" departLane="random" departSpeed="10" />
    <vehicle id="S_N_28" type="standard_car" route="S_N" depart="118.0" departLane="random" departSpeed="10" />
    <vehicle id="W_S_29" type="standard_car" route="W_S" depart="119.0" departLane="random" departSpeed="10" />
    <vehicle id="N_S_30" type="standard_car" route="N_S" depart="119.0" departLane="random" departSpeed="10" />
    <vehicle id="S_N_31" type="standard_car" route="S_N" depart="121.0" departLane="random" departSpeed="10" />
    <vehicle id="E_W_32" type="standard_car" route="E_W" depart="122.0" departLane="random" departSpeed="10" />
    <vehicle id="E_W_33" type="standard_car" route="E_W" depart="122.0" departLane="random" departSpeed="10" />
    <vehicle id="E_W_34" type="standard_car" route="E_W" depart="123.0" departLane="random" departSpeed="10" />
    <vehicle id="S_N_35" type="standard_car" route="S_N" depart="125.0" departLane="random" departSpeed="10" />
    <vehicle id="N_S_36" type="standard_car" route="N_S" depart="125.0" departLane="random" departSpeed="10" />
    <vehicle id="S_N_37" type="standard_car" route="S_N" depart="125.0" departLane="random" departSpeed="10" />
    <vehicle id="N_S_38" type="standard_car" route="N_S" depart="126.0" departLane="random" departSpeed="10" />
    <vehicle id="W_E_39" type="standard_car" route="W_E" depart="129.0" departLane="random" departSpeed="10" />
    <vehicle id="E_W_40" type="standard_car" route="E_W" depart="130.0" departLane="random" departSpeed="10" />
    <vehicle id="S_N_41" type="standard_car" route="S_N" depart="136.0" departLane="random" departSpeed="10" />
    <vehicle id="W_E_42" type="standard_car" route="W_E" depart="136.0" departLane="random" departSpeed="10" />
    <vehicle id="S_N_43" type="standard_car" route="S_N" depart="137.0" departLane="random" departSpeed="10" />
    <vehicle id="N_S_44" type="standard_car" route="N_S" depart="137.0" departLane="random" departSpeed="10" />
    <vehicle id="S_W_45" type="standard_car" route="S_W" depart="140.0" departLane="random" departSpeed="10" />
    <vehicle id="W_E_46" type="standard_car" route="W_E" depart="141.0" departLane="random" departSpeed="10" />
    <vehicle id="N_S_47" type="standard_car" route="N_S" depart="142.0" departLane="random" departSpeed="10" />
    <vehicle id="N_E_48" type="standard_car" route="N_E" depart="147.0" departLane="random" departSpeed="10" />
    <vehicle id="S_N_49" type="standard_car" route="S_N" depart="148.0" departLane="random" departSpeed="10" />
    <vehicle id="N_S_50" type="standard_car" route="N_S" depart="150.0" departLane="random" departSpeed="10" />
    <vehicle id="W_E_51" type="standard_car" route="W_E" depart="150.0" departLane="random" departSpeed="10" />
    <vehicle id="S_N_52" type="standard_car" route="S_N" depart="152.0" departLane="random" departSpeed="10" />
    <vehicle id="E_S_53" type="standard_car" route="E_S" depart="161.0" departLane="random" departSpeed="10" />
    <vehicle id="E_W_54" type="standard_car" route="E_W" depart="162.0" departLane="random" departSpeed="10" />
    <vehicle id="N_S_55" type="standard_car" route="N_S" depart="162.0" departLane="random" departSpeed="10" />
    <vehicle id="N_S_56" type="standard_car" route="N_S" depart="163.0" departLane="random" departSpeed="10" />
    <vehicle id="N_E_57" type="standard_car" route="N_E" depart="163.0" departLane="random" departSpeed="10" />
    <vehicle id="S_N_58" type="standard_car" route="S_N" depart="164.0" departLane="random" departSpeed="10" />
    <vehicle id="E_W_59" type="standard_car" route="E_W" depart="166.0" departLane="random" departSpeed="10" />
    <vehicle id="E_W_60" type="standard_car" route="E_W" depart="166.0" departLane="random" departSpeed="10" />
    <vehicle id="W_E_61" type="standard_car" route="W_E" depart="167.0" departLane="random" departSpeed="10" />
    <vehicle id="W_E_62" type="standard_car" route="W_E" depart="167.0" departLane="random" departSpeed="10" />
    <vehicle id="W_E_63" type="standard_car" route="W_E" depart="168.0" departLane="random" departSpeed="10" />
    <vehicle id="N_S_64" type="standard_car" route="N_S" depart="168.0" departLane="random" departSpeed="10" />
    <vehicle id="W_E_65" type="standard_car" route="W_E" depart="169.0" departLane="random" departSpeed="10" />
    <vehicle id="N_S_66" type="standard_car" route="N_S" depart="169.0" departLane="random" departSpeed="10" />
    <vehicle id="E_W_67" type="standard_car" route="E_W" depart="170.0" departLane="random" departSpeed="10" />
    <vehicle id="S_N_68" type="standard_car" route="S_N" depart="171.0" departLane="random" departSpeed="10" />
    <vehicle id="S_N_69" type="standard_car" route="S_N" depart="176.0" departLane="random" departSpeed="10" />
    <vehicle id="N_S_70" type="standard_car" route="N_S" depart="177.0" departLane="random" departSpeed="10" />
    <vehicle id="N_S_71" type="standard_car" route="N_S" depart="177.0" departLane="random" departSpeed="10" />
    <vehicle id="S_N_72" type="standard_car" route="S_N" depart="178.0" departLane="random" departSpeed="10" />
    <vehicle id="W_E_73" type="standard_car" route="W_E" depart="181.0" departLane="random" departSpeed="10" />
    <vehicle id="W_E_74" type="standard_car" route="W_E" depart="182.0" departLane="random" departSpeed="10" />
    <vehicle id="W_E_75" type="standard_car" route="W_E" depart="182.0" departLane="random" departSpeed="10" />
    <vehicle id="W_E_76" type="standard_car" route="W_E" depart="187.0" departLane="random" departSpeed="10" />
    <vehicle id="E_W_77" type="standard_car" route="E_W" depart="188.0" departLane="random" departSpeed="10" />
    <vehicle id="S_N_78" type="standard_car" route="S_N" depart="192.0" departLane="random" departSpeed="10" />
    <vehicle id="S_W_79" type="standard_car" route="S_W" depart="194.0" departLane="random" departSpeed="10" />
    <vehicle id="N_E_80" type="standard_car" route="N_E" depart="194.0" departLane="random" departSpeed="10" />
    <vehicle id="E_W_81" type="standard_car" route="E_W" depart="194.0" departLane="random" departSpeed="10" />
    <vehicle id="W_E_82" type="standard_car" route="W_E" depart="196.0" departLane="random" departSpeed="10" />
    <vehicle id="W_E_83" type="standard_car" route="W_E" depart="196.0" departLane="random" departSpeed="10" />
    <vehicle id="S_N_84" type="standard_car" route="S_N" depart="196.0" departLane="random" departSpeed="10" />
    <vehicle id="W_E_85" type="standard_car" route="W_E" depart="200.0" departLane="random" departSpeed="10" />
    <vehicle id="E_W_86" type="standard_car" route="E_W" depart="201.0" departLane="random" departSpeed="10" />
    <vehicle id="N_S_87" type="standard_car" route="N_S" depart="201.0" departLane="random" departSpeed="10" />
    <vehicle id="E_W_88" type="standard_car" route="E_W" depart="202.0" departLane="random" departSpeed="10" />
    <vehicle id="W_E_89" type="standard_car" route="W_E" depart="206.0" departLane="random" departSpeed="10" />
    <vehicle id="W_E_90" type="standard_car" route="W_E" depart="206.0" departLane="random" departSpeed="10" />
    <vehicle id="S_N_91" type="standard_car" route="S_N" depart="207.0" departLane="random" departSpeed="10" />
    <vehicle id="S_N_92" type="standard_car" route="S_N" depart="210.0" departLane="random" departSpeed="10" />
    <vehicle id="S_E_93" type="standard_car" route="S_E" depart="211.0" departLane="random" departSpeed="10" />
    <vehicle id="S_N_94" type="standard_car" route="S_N" depart="211.0" departLane="random" departSpeed="10" />
    <vehicle id="E_W_95" type="standard_car" route="E_W" depart="212.0" departLane="random" departSpeed="10" />
    <vehicle id="N_W_96" type="standard_car" route="N_W" depart="213.0" departLane="random" departSpeed="10" />
    <vehicle id="S_E_97" type="standard_car" route="S_E" depart="213.0" departLane="random" departSpeed="10" />
    <vehicle id="E_W_98" type="standard_car" route="E_W" depart="213.0" departLane="random" departSpeed="10" />
    <vehicle id="W_N_99" type="standard_car" route="W_N" depart="214.0" departLane="random" departSpeed="10" />
    <vehicle id="W_E_100" type="standard_car" route="W_E" depart="216.0" departLane="random" departSpeed="10" />
    <vehicle id="W_E_101" type="standard_car" route="W_E" depart="216.0" departLane="random" departSpeed="10" />
    <vehicle id="N_S_102" type="standard_car" route="N_S" depart="221.0" departLane="random" departSpeed="10" />
    <vehicle id="N_E_103" type="standard_car" route="N_E" depart="222.0" departLane="random" departSpeed="10" />
    <vehicle id="S_N_104" type="standard_car" route="S_N" depart="225.0" departLane="random" departSpeed="10" />
    <vehicle id="N_S_105" type="standard_car" route="N_S" depart="226.0" departLane="random" departSpeed="10" />
    <vehicle id="N_S_106" type="standard_car" route="N_S" depart="229.0" departLane="random" departSpeed="10" />
    <vehicle id="N_S_107" type="standard_car" route="N_S" depart="229.0" departLane="random" departSpeed="10" />
    <vehicle id="S_E_108" type="standard_car" route="S_E" depart="231.0" departLane="random" departSpeed="10" />
    <vehicle id="S_W_109" type="standard_car" route="S_W" depart="232.0" departLane="random" departSpeed="10" />
    <vehicle id="E_W_110" type="standard_car" route="E_W" depart="232.0" departLane="random" departSpeed="10" />
    <vehicle id="E_W_111" type="standard_car" route="E_W" depart="233.0" departLane="random" departSpeed="10" />
    <vehicle id="E_W_112" type="standard_car" route="E_W" depart="234.0" departLane="random" departSpeed="10" />
    <vehicle id="W_E_113" type="standard_car" route="W_E" depart="234.0" departLane="random" departSpeed="10" />
    <vehicle id="W_E_114" type="standard_car" route="W_E" depart="235.0" departLane="random" departSpeed="10" />
    <vehicle id="N_W_115" type="standard_car" route="N_W" depart="236.0" departLane="random" departSpeed="10" />
    <vehicle id="N_S_116" type="standard_car" route="N_S" depart="239.0" departLane="random" departSpeed="10" />
    <vehicle id="S_N_117" type="standard_car" route="S_N" depart="240.0" departLane="random" departSpeed="10" />
    <vehicle id="N_S_118" type="standard_car" route="N_S" depart="242.0" departLane="random" departSpeed="10" />
    <vehicle id="N_W_119" type="standard_car" route="N_W" depart="242.0" departLane="random" departSpeed="10" />
    <vehicle id="S_N_120" type="standard_car" route="S_N" depart="244.0" departLane="random" departSpeed="10" />
    <vehicle id="W_E_121" type="standard_car" route="W_E" depart="244.0" departLane="random" departSpeed="10" />
    <vehicle id="N_W_122" type="standard_car" route="N_W" depart="244.0" departLane="random" departSpeed="10" />
    <vehicle id="W_S_123" type="standard_car" route="W_S" depart="245.0" departLane="random" departSpeed="10" />
    <vehicle id="E_W_124" type="standard_car" route="E_W" depart="247.0" departLane="random" departSpeed="10" />
    <vehicle id="N_S_125" type="standard_car" route="N_S" depart="247.0" departLane="random" departSpeed="10" />
    <vehicle id="W_E_126" type="standard_car" route="W_E" depart="249.0" departLane="random" departSpeed="10" />
    <vehicle id="W_E_127" type="standard_car" route="W_E" depart="251.0" departLane="random" departSpeed="10" />
    <vehicle id="S_N_128" type="standard_car" route="S_N" depart="256.0" departLane="random" departSpeed="10" />
    <vehicle id="E_W_129" type="standard_car" route="E_W" depart="258.0" departLane="random" departSpeed="10" />
    <vehicle id="W_E_130" type="standard_car" route="W_E" depart="259.0" departLane="random" departSpeed="10" />
    <vehicle id="E_W_131" type="standard_car" route="E_W" depart="259.0" departLane="random" departSpeed="10" />
    <vehicle id="S_N_132" type="standard_car" route="S_N" depart="260.0" departLane="random" departSpeed="10" />
    <vehicle id="E_W_133" type="standard_car" route="E_W" depart="261.0" departLane="random" departSpeed="10" />
    <vehicle id="W_N_134" type="standard_car" route="W_N" depart="261.0" departLane="random" departSpeed="10" />
    <vehicle id="E_W_135" type="standard_car" route="E_W" depart="262.0" departLane="random" departSpeed="10" />
    <vehicle id="S_N_136" type="standard_car" route="S_N" depart="262.0" departLane="random" departSpeed="10" />
    <vehicle id="E_W_137" type="standard_car" route="E_W" depart="262.0" departLane="random" departSpeed="10" />
    <vehicle id="E_W_138" type="standard_car" route="E_W" depart="263.0" departLane="random" departSpeed="10" />
    <vehicle id="W_E_139" type="standard_car" route="W_E" depart="264.0" departLane="random" departSpeed="10" />
    <vehicle id="N_S_140" type="standard_car" route="N_S" depart="265.0" departLane="random" departSpeed="10" />
    <vehicle id="S_N_141" type="standard_car" route="S_N" depart="266.0" departLane="random" departSpeed="10" />
    <vehicle id="W_N_142" type="standard_car" route="W_N" depart="269.0" departLane="random" departSpeed="10" />
    <vehicle id="E_W_143" type="standard_car" route="E_W" depart="269.0" departLane="random" departSpeed="10" />
    <vehicle id="N_S_144" type="standard_car" route="N_S" depart="270.0" departLane="random" departSpeed="10" />
    <vehicle id="N_S_145" type="standard_car" route="N_S" depart="270.0" departLane="random" departSpeed="10" />
    <vehicle id="E_W_146" type="standard_car" route="E_W" depart="271.0" departLane="random" departSpeed="10" />
    <vehicle id="N_S_147" type="standard_car" route="N_S" depart="273.0" departLane="random" departSpeed="10" />
    <vehicle id="N_S_148" type="standard_car" route="N_S" depart="273.0" departLane="random" departSpeed="10" />
    <vehicle id="E_W_149" type="standard_car" route="E_W" depart="273.0" departLane="random" departSpeed="10" />
    <vehicle id="E_W_150" type="standard_car" route="E_W" depart="273.0" departLane="random" departSpeed="10" />
    <vehicle id="S_N_151" type="standard_car" route="S_N" depart="276.0" departLane="random" departSpeed="10" />
    <vehicle id="E_W_152" type="standard_car" route="E_W" depart="278.0" departLane="random" departSpeed="10" />
    <vehicle id="N_S_153" type="standard_car" route="N_S" depart="279.0" departLane="random" departSpeed="10" />
    <vehicle id="N_S_154" type="standard_car" route="N_S" depart="280.0" departLane="random" departSpeed="10" />
    <vehicle id="S_N_155" type="standard_car" route="S_N" depart="281.0" departLane="random" departSpeed="10" />
    <vehicle id="N_W_156" type="standard_car" route="N_W" depart="281.0" departLane="random" departSpeed="10" />
    <vehicle id="W_S_157" type="standard_car" route="W_S" depart="282.0" departLane="random" departSpeed="10" />
    <vehicle id="N_S_158" type="standard_car" route="N_S" depart="284.0" departLane="random" departSpeed="10" />
    <vehicle id="W_E_159" type="standard_car" route="W_E" depart="286.0" departLane="random" departSpeed="10" />
    <vehicle id="S_N_160" type="standard_car" route="S_N" depart="288.0" departLane="random" departSpeed="10" />
    <vehicle id="N_W_161" type="standard_car" route="N_W" depart="288.0" departLane="random" departSpeed="10" />
    <vehicle id="E_W_162" type="standard_car" route="E_W" depart="289.0" departLane="random" departSpeed="10" />
    <vehicle id="S_N_163" type="standard_car" route="S_N" depart="289.0" departLane="random" departSpeed="10" />
    <vehicle id="W_E_164" type="standard_car" route="W_E" depart="290.0" departLane="random" departSpeed="10" />
    <vehicle id="N_S_165" type="standard_car" route="N_S" depart="290.0" departLane="random" departSpeed="10" />
    <vehicle id="S_N_166" type="standard_car" route="S_N" depart="291.0" departLane="random" departSpeed="10" />
    <vehicle id="W_E_167" type="standard_car" route="W_E" depart="292.0" departLane="random" departSpeed="10" />
    <vehicle id="N_S_168" type="standard_car" route="N_S" depart="292.0" departLane="random" departSpeed="10" />
    <vehicle id="S_N_169" type="standard_car" route="S_N" depart="295.0" departLane="random" departSpeed="10" />
    <vehicle id="W_E_170" type="standard_car" route="W_E" depart="295.0" departLane="random" departSpeed="10" />
    <vehicle id="E_W_171" type="standard_car" route="E_W" depart="295.0" departLane="random" departSpeed="10" />
    <vehicle id="N_E_172" type="standard_car" route="N_E" depart="296.0" departLane="random" departSpeed="10" />
    <vehicle id="N_S_173" type="standard_car" route="N_S" depart="296.0" departLane="random" departSpeed="10" />
    <vehicle id="W_E_174" type="standard_car" route="W_E" depart="297.0" departLane="random" departSpeed="10" />
    <vehicle id="N_S_175" type="standard_car" route="N_S" depart="298.0" departLane="random" departSpeed="10" />
    <vehicle id="E_W_176" type="standard_car" route="E_W" depart="298.0" departLane="random" departSpeed="10" />
    <vehicle id="S_N_177" type="standard_car" route="S_N" depart="299.0" departLane="random" departSpeed="10" />
    <vehicle id="E_S_178" type="standard_car" route="E_S" depart="302.0" departLane="random" departSpeed="10" />
    <vehicle id="W_E_179" type="standard_car" route="W_E" depart="303.0" departLane="random" departSpeed="10" />
    <vehicle id="N_S_180" type="standard_car" route="N_S" depart="303.0" departLane="random" departSpeed="10" />
    <vehicle id="N_S_181" type="standard_car" route="N_S" depart="304.0" departLane="random" departSpeed="10" />
    <vehicle id="W_E_182" type="standard_car" route="W_E" depart="304.0" departLane="random" departSpeed="10" />
    <vehicle id="N_S_183" type="standard_car" route="N_S" depart="305.0" departLane="random" departSpeed="10" />
    <vehicle id="W_E_184" type="standard_car" route="W_E" depart="306.0" departLane="random" departSpeed="10" />
    <vehicle id="S_E_185" type="standard_car" route="S_E" depart="308.0" departLane="random" departSpeed="10" />
    <vehicle id="W_E_186" type="standard_car" route="W_E" depart="311.0" departLane="random" departSpeed="10" />
    <vehicle id="N_S_187" type="standard_car" route="N_S" depart="313.0" departLane="random" departSpeed="10" />
    <vehicle id="E_W_188" type="standard_car" route="E_W" depart="314.0" departLane="random" departSpeed="10" />
    <vehicle id="S_W_189" type="standard_car" route="S_W" depart="316.0" departLane="random" departSpeed="10" />
    <vehicle id="S_N_190" type="standard_car" route="S_N" depart="316.0" departLane="random" departSpeed="10" />
    <vehicle id="N_S_191" type="standard_car" route="N_S" depart="322.0" departLane="random" departSpeed="10" />
    <vehicle id="N_S_192" type="standard_car" route="N_S" depart="322.0" departLane="random" departSpeed="10" />
    <vehicle id="S_N_193" type="standard_car" route="S_N" depart="324.0" departLane="random" departSpeed="10" />
    <vehicle id="N_S_194" type="standard_car" route="N_S" depart="325.0" departLane="random" departSpeed="10" />
    <vehicle id="S_N_195" type="standard_car" route="S_N" depart="327.0" departLane="random" departSpeed="10" />
    <vehicle id="N_S_196" type="standard_car" route="N_S" depart="328.0" departLane="random" departSpeed="10" />
    <vehicle id="N_E_197" type="standard_car" route="N_E" depart="329.0" departLane="random" departSpeed="10" />
    <vehicle id="W_E_198" type="standard_car" route="W_E" depart="330.0" departLane="random" departSpeed="10" />
    <vehicle id="S_N_199" type="standard_car" route="S_N" depart="330.0" departLane="random" departSpeed="10" />
    <vehicle id="S_N_200" type="standard_car" route="S_N" depart="333.0" departLane="random" departSpeed="10" />
    <vehicle id="N_S_201" type="standard_car" route="N_S" depart="334.0" departLane="random" departSpeed="10" />
    <vehicle id="N_S_202" type="standard_car" route="N_S" depart="334.0" departLane="random" departSpeed="10" />
    <vehicle id="N_S_203" type="standard_car" route="N_S" depart="336.0" departLane="random" departSpeed="10" />
    <vehicle id="N_E_204" type="standard_car" route="N_E" depart="337.0" departLane="random" departSpeed="10" />
    <vehicle id="E_W_205" type="standard_car" route="E_W" depart="337.0" departLane="random" departSpeed="10" />
    <vehicle id="S_N_206" type="standard_car" route="S_N" depart="338.0" departLane="random" departSpeed="10" />
    <vehicle id="W_E_207" type="standard_car" route="W_E" depart="338.0" departLane="random" departSpeed="10" />
    <vehicle id="N_S_208" type="standard_car" route="N_S" depart="340.0" departLane="random" departSpeed="10" />
    <vehicle id="S_N_209" type="standard_car" route="S_N" depart="340.0" departLane="random" departSpeed="10" />
    <vehicle id="S_N_210" type="standard_car" route="S_N" depart="340.0" departLane="random" departSpeed="10" />
    <vehicle id="N_S_211" type="standard_car" route="N_S" depart="341.0" departLane="random" departSpeed="10" />
    <vehicle id="N_S_212" type="standard_car" route="N_S" depart="343.0" departLane="random" departSpeed="10" />
    <vehicle id="E_S_213" type="standard_car" route="E_S" depart="343.0" departLane="random" departSpeed="10" />
    <vehicle id="S_N_214" type="standard_car" route="S_N" depart="343.0" departLane="random" departSpeed="10" />
    <vehicle id="W_E_215" type="standard_car" route="W_E" depart="343.0" departLane="random" departSpeed="10" />
    <vehicle id="N_S_216" type="standard_car" route="N_S" depart="347.0" departLane="random" departSpeed="10" />
    <vehicle id="W_E_217" type="standard_car" route="W_E" depart="348.0" departLane="random" departSpeed="10" />
    <vehicle id="W_E_218" type="standard_car" route="W_E" depart="348.0" departLane="random" departSpeed="10" />
    <vehicle id="E_W_219" type="standard_car" route="E_W" depart="349.0" departLane="random" departSpeed="10" />
    <vehicle id="W_E_220" type="standard_car" route="W_E" depart="350.0" departLane="random" departSpeed="10" />
    <vehicle id="S_N_221" type="standard_car" route="S_N" depart="350.0" departLane="random" departSpeed="10" />
    <vehicle id="S_N_222" type="standard_car" route="S_N" depart="353.0" departLane="random" departSpeed="10" />
    <vehicle id="E_W_223" type="standard_car" route="E_W" depart="355.0" departLane="random" departSpeed="10" />
    <vehicle id="W_E_224" type="standard_car" route="W_E" depart="356.0" departLane="random" departSpeed="10" />
    <vehicle id="N_S_225" type="standard_car" route="N_S" depart="357.0" departLane="random" departSpeed="10" />
    <vehicle id="N_S_226" type="standard_car" route="N_S" depart="358.0" departLane="random" departSpeed="10" />
    <vehicle id="N_S_227" type="standard_car" route="N_S" depart="359.0" departLane="random" departSpeed="10" />
    <vehicle id="W_E_228" type="standard_car" route="W_E" depart="360.0" departLane="random" departSpeed="10" />
    <vehicle id="E_W_229" type="standard_car" route="E_W" depart="361.0" departLane="random" departSpeed="10" />
    <vehicle id="W_E_230" type="standard_car" route="W_E" depart="362.0" departLane="random" departSpeed="10" />
    <vehicle id="W_E_231" type="standard_car" route="W_E" depart="362.0" departLane="random" departSpeed="10" />
    <vehicle id="E_S_232" type="standard_car" route="E_S" depart="363.0" departLane="random" departSpeed="10" />
    <vehicle id="S_N_233" type="standard_car" route="S_N" depart="364.0" departLane="random" departSpeed="10" />
    <vehicle id="W_E_234" type="standard_car" route="W_E" depart="364.0" departLane="random" departSpeed="10" />
    <vehicle id="N_S_235" type="standard_car" route="N_S" depart="365.0" departLane="random" departSpeed="10" />
    <vehicle id="N_S_236" type="standard_car" route="N_S" depart="365.0" departLane="random" departSpeed="10" />
    <vehicle id="N_W_237" type="standard_car" route="N_W" depart="366.0" departLane="random" departSpeed="10" />
    <vehicle id="S_N_238" type="standard_car" route="S_N" depart="366.0" departLane="random" departSpeed="10" />
    <vehicle id="S_W_239" type="standard_car" route="S_W" depart="367.0" departLane="random" departSpeed="10" />
    <vehicle id="W_E_240" type="standard_car" route="W_E" depart="367.0" departLane="random" departSpeed="10" />
    <vehicle id="N_S_241" type="standard_car" route="N_S" depart="368.0" departLane="random" departSpeed="10" />
    <vehicle id="E_W_242" type="standard_car" route="E_W" depart="368.0" departLane="random" departSpeed="10" />
    <vehicle id="E_W_243" type="standard_car" route="E_W" depart="368.0" departLane="random" departSpeed="10" />
    <vehicle id="S_N_244" type="standard_car" route="S_N" depart="372.0" departLane="random" departSpeed="10" />
    <vehicle id="E_W_245" type="standard_car" route="E_W" depart="373.0" departLane="random" departSpeed="10" />
    <vehicle id="N_S_246" type="standard_car" route="N_S" depart="374.0" departLane="random" departSpeed="10" />
    <vehicle id="W_E_247" type="standard_car" route="W_E" depart="374.0" departLane="random" departSpeed="10" />
    <vehicle id="S_W_248" type="standard_car" route="S_W" depart="374.0" departLane="random" departSpeed="10" />
    <vehicle id="N_S_249" type="standard_car" route="N_S" depart="374.0" departLane="random" departSpeed="10" />
    <vehicle id="E_W_250" type="standard_car" route="E_W" depart="375.0" departLane="random" departSpeed="10" />
    <vehicle id="N_S_251" type="standard_car" route="N_S" depart="375.0" departLane="random" departSpeed="10" />
    <vehicle id="W_E_252" type="standard_car" route="W_E" depart="376.0" departLane="random" departSpeed="10" />
    <vehicle id="E_W_253" type="standard_car" route="E_W" depart="376.0" departLane="random" departSpeed="10" />
    <vehicle id="S_N_254" type="standard_car" route="S_N" depart="377.0" departLane="random" departSpeed="10" />
    <vehicle id="W_N_255" type="standard_car" route="W_N" depart="378.0" departLane="random" departSpeed="10" />
    <vehicle id="E_S_256" type="standard_car" route="E_S" depart="380.0" departLane="random" departSpeed="10" />
    <vehicle id="N_E_257" type="standard_car" route="N_E" depart="380.0" departLane="random" departSpeed="10" />
    <vehicle id="E_W_258" type="standard_car" route="E_W" depart="381.0" departLane="random" departSpeed="10" />
    <vehicle id="W_E_259" type="standard_car" route="W_E" depart="381.0" departLane="random" departSpeed="10" />