<routes>
            <vType accel="1.0" decel="4.5" id="standard_car" length="5.0" minGap="2.5" maxSpeed="25" sigma="0.5" />

            <route id="W_N" edges="W2TL TL2N"/>
            <route id="W_E" edges="W2TL TL2E"/>
            <route id="W_S" edges="W2TL TL2S"/>
            <route id="N_W" edges="N2TL TL2W"/>
            <route id="N_E" edges="N2TL TL2E"/>
            <route id="N_S" edges="N2TL TL2S"/>
            <route id="E_W" edges="E2TL TL2W"/>
            <route id="E_N" edges="E2TL TL2N"/>
            <route id="E_S" edges="E2TL TL2S"/>
            <route id="S_W" edges="S2TL TL2W"/>
            <route id="S_N" edges="S2TL TL2N"/>
            <route id="S_E" edges="S2TL TL2E"/>
    <vehicle id="E_N_0" type="standard_car" route="E_N" depart="5.0" departLane="random" departSpeed="10" />
    <vehicle id="S_N_1" type="standard_car" route="S_N" depart="18.0" departLane="random" departSpeed="10" />
    <vehicle id="W_N_2" type="standard_car" route="W_N" depart="36.0" departLane="random" departSpeed="10" />
    <vehicle id="S_W_3" type="standard_car" route="S_W" depart="40.0" departLane="random" departSpeed="10" />
    <vehicle id="N_E_4" type="standard_car" route="N_E" depart="40.0" departLane="random" departSpeed="10" />
    <vehicle id="N_S_5" type="standard_car" route="N_S" depart="47.0" departLane="random" departSpeed="10" />
    <vehicle id="W_E_6" type="standard_car" route="W_E" depart="52.0" departLane="random" departSpeed="10" />
    <vehicle id="E_W_7" type="standard_car" route="E_W" depart="61.0" departLane="random" departSpeed="10" />
    <vehicle id="N_W_8" type="standard_car" route="N_W" depart="64.0" departLane="random" departSpeed="10" />
    <vehicle id="N_E_9" type="standard_car" route="N_E" depart="64.0" departLane="random" departSpeed="10" />
    <vehicle id="W_E_10" type="standard_car" route="W_E" depart="66.0" departLane="random" departSpeed="10" />
    <vehicle id="W_N_11" type="standard_car" route="W_N" depart="67.0" departLane="random" departSpeed="10" />
    <vehicle id="W_E_12" type="standard_car" route="W_E" depart="68.0" departLane="random" departSpeed="10" />
    <vehicle id="E_W_13" type="standard_car" route="E_W" depart="68.0" departLane="random" departSpeed="10" />
    <vehicle id="E_W_14" type="standard_car" route="E_W" depart="70.0" departLane="random" departSpeed="10" />
    <vehicle id="W_E_15" type="standard_car" route="W_E" depart="71.0" departLane="random" departSpeed="10" />
    <vehicle id="W_S_16" type="standard_car" route="W_S" depart="72.0" departLane="random" departSpeed="10" />
    <vehicle id="W_E_17" type="standard_car" route="W_E" depart="73.0" departLane="random" departSpeed="10" />
    <vehicle id="S_W_18" type="standard_car" route="S_W" depart="74.0" departLane="random" departSpeed="10" />
    <vehicle id="N_S_19" type="standard_car" route="N_S" depart="75.0" departLane="random" departSpeed="10" />
    <vehicle id="N_S_20" type="standard_car" route="N_S" depart="81.0" departLane="random" departSpeed="10" />
    <vehicle id="E_W_21" type="standard_car" route="E_W" depart="82.0" departLane="random" departSpeed="10" />
    <vehicle id="N_S_22" type="standard_car" route="N_S" depart="82.0" departLane="random" departSpeed="10" />
    <vehicle id="E_W_23" type="standard_car" route="E_W" depart="86.0" departLane="random" departSpeed="10" />
    <vehicle id="E_W_24" type="standard_car" route="E_W" depart="86.0" departLane="random" departSpeed="10" />
    <vehicle id="W_E_25" type="standard_car" route="W_E" depart="87.0" departLane="random" departSpeed="10" />
    <vehicle id="S_W_26" type="standard_car" route="S_W" depart="87.0" departLane="random" departSpeed="10" />
    <vehicle id="E_W_27" type="standard_car" route="E_W" depart="92.0" departLane="random" departSpeed="10" />
    <vehicle id="S_N_28" type="standard_car" route="S_N" depart="97.0" departLane="random" departSpeed="10" />
    <vehicle id="S_N_29" type="standard_car" route="S_N" depart="98.0" departLane="random" departSpeed="10" />
    <vehicle id="E_W_30" type="standard_car" route="E_W" depart="101.0" departLane="random" departSpeed="10" />
    <vehicle id="N_S_31" type="standard_car" route="N_S" depart="101.0" departLane="random" departSpeed="10" />
    <vehicle id="N_S_32" type="standard_car" route="N_S" depart="103.0" departLane="random" departSpeed="10" />
    <vehicle id="S_W_33" type="standard_car" route="S_W" depart="103.0" departLane="random" departSpeed="10" />
    <vehicle id="W_E_34" type="standard_car" route="W_E" depart="103.0" departLane="random" departSpeed="10" />
    <vehicle id="S_N_35" type="standard_car" route="S_N" depart="105.0" departLane="random" departSpeed="10" />
    <vehicle id="W_S_36" type="standard_car" route="W_S" depart="107.0" departLane="random" departSpeed="10" />
    <vehicle id="N_S_37" type="standard_car" route="N_S" depart="111.0" departLane="random" departSpeed="10" />
    <vehicle id="N_S_38" type="standard_car" route="N_S" depart="113.0" departLane="random" departSpeed="10" />
    <vehicle id="W_S_39" type="standard_car" route="W_S" depart="113.0" departLane="random" departSpeed="10" />
    <vehicle id="E_W_40" type="standard_car" route="E_W" depart="115.0" departLane="random" departSpeed="10" />
    <vehicle id="S_N_41" type="standard_car" route="S_N" depart="115.0" departLane="random" departSpeed="10" />
    <vehicle id="S_N_42" type="standard_car" route="S_N" depart="119.0" departLane="random" departSpeed="10" />
    <vehicle id="W_E_43" type="standard_car" route="W_E" depart="121.0" departLane="random" departSpeed="10" />
    <vehicle id="W_E_44" type="standard_car" route="W_E" depart="121.0" departLane="random" departSpeed="10" />
    <vehicle id="W_E_45" type="standard_car" route="W_E" depart="122.0" departLane="random" departSpeed="10" />
    <vehicle id="E_N_46" type="standard_car" route="E_N" depart="122.0" departLane="random" departSpeed="10" />
    <vehicle id="E_S_47" type="standard_car" route="E_S" depart="123.0" departLane="random" departSpeed="10" />
    <vehicle id="N_S_48" type="standard_car" route="N_S" depart="123.0" departLane="random" departSpeed="10" />
    <vehicle id="N_S_49" type="standard_car" route="N_S" depart="124.0" departLane="random" departSpeed="10" />
    <vehicle id="W_E_50" type="standard_car" route="W_E" depart="125.0" departLane="random" departSpeed="10" />
    <vehicle id="N_E_51" type="standard_car" route="N_E" depart="127.0" departLane="random" departSpeed="10" />
    <vehicle id="W_N_52" type="standard_car" route="W_N" depart="127.0" departLane="random" departSpeed="10" />
    <vehicle id="S_N_53" type="standard_car" route="S_N" depart="128.0" departLane="random" departSpeed="10" />
    <vehicle id="N_S_54" type="standard_car" route="N_S" depart="128.0" departLane="random" departSpeed="10" />
    <vehicle id="E_W_55" type="standard_car" route="E_W" depart="129.0" departLane="random" departSpeed="10" />
    <vehicle id="E_W_56" type="standard_car" route="E_W" depart="129.0" departLane="random" departSpeed="10" />
    <vehicle id="W_E_57" type="standard_car" route="W_E" depart="131.0" departLane="random" departSpeed="10" />
    <vehicle id="W_S_58" type="standard_car" route="W_S" depart="132.0" departLane="random" departSpeed="10" />
    <vehicle id="E_S_59" type="standard_car" route="E_S" depart="132.0" departLane="random" departSpeed="10" />
    <vehicle id="S_E_60" type="standard_car" route="S_E" depart="133.0" departLane="random" departSpeed="10" />
    <vehicle id="N_S_61" type="standard_car" route="N_S" depart="134.0" departLane="random" departSpeed="10" />
    <vehicle id="S_N_62" type="standard_car" route="S_N" depart="135.0" departLane="random" departSpeed="10" />
    <vehicle id="W_E_63" type="standard_car" route="W_E" depart="136.0" departLane="random" departSpeed="10" />
    <vehicle id="S_W_64" type="standard_car" route="S_W" depart="138.0" departLane="random" departSpeed="10" />
    <vehicle id="W_E_65" type="standard_car" route="W_E" depart="138.0" departLane="random" departSpeed="10" />
    <vehicle id="W_E_66" type="standard_car" route="W_E" depart="140.0" departLane="random" departSpeed="10" />
    <vehicle id="W_E_67" type="standard_car" route="W_E" depart="140.0" departLane="random" departSpeed="10" />
    <vehicle id="W_E_68" type="standard_car" route="W_E" depart="140.0" departLane="random" departSpeed="10" />
    <vehicle id="N_S_69" type="standard_car" route="N_S" depart="142.0" departLane="random" departSpeed="10" />
    <vehicle id="S_W_70" type="standard_car" route="S_W" depart="144.0" departLane="random" departSpeed="10" />
    <vehicle id="E_W_71" type="standard_car" route="E_W" depart="148.0" departLane="random" departSpeed="10" />
    <vehicle id="N_E_72" type="standard_car" route="N_E" depart="149.0" departLane="random" departSpeed="10" />
    <vehicle id="W_E_73" type="standard_car" route="W_E" depart="154.0" departLane="random" departSpeed="10" />
    <vehicle id="S_N_74" type="standard_car" route="S_N" depart="156.0" departLane="random" departSpeed="10" />
    <vehicle id="S_N_75" type="standard_car" route="S_N" depart="157.0" departLane="random" departSpeed="10" />
    <vehicle id="S_N_76" type="standard_car" route="S_N" depart="158.0" departLane="random" departSpeed="10" />
    <vehicle id="E_S_77" type="standard_car" route="E_S" depart="160.0" departLane="random" departSpeed="10" />
    <vehicle id="N_S_78" type="standard_car" route="N_S" depart="162.0" departLane="random" departSpeed="10" />
    <vehicle id="N_E_79" type="standard_car" route="N_E" depart="162.0" departLane="random" departSpeed="10" />
    <vehicle id="S_N_80" type="standard_car" route="S_N" depart="164.0" departLane="random" departSpeed="10" />
    <vehicle id="E_W_81" type="standard_car" route="E_W" depart="164.0" departLane="random" departSpeed="10" />
    <vehicle id="E_W_82" type="standard_car" route="E_W" depart="167.0" departLane="random" departSpeed="10" />
    <vehicle id="E_W_83" type="standard_car" route="E_W" depart="167.0" departLane="random" departSpeed="10" />
    <vehicle id="E_W_84" type="standard_car" route="E_W" depart="168.0" departLane="random" departSpeed="10" />
    <vehicle id="W_E_85" type="standard_car" route="W_E" depart="169.0" departLane="random" departSpeed="10" />
    <vehicle id="N_S_86" type="standard_car" route="N_S" depart="170.0" departLane="random" departSpeed="10" />
    <vehicle id="N_S_87" type="standard_car" route="N_S" depart="171.0" departLane="random" departSpeed="10" />
    <vehicle id="W_E_88" type="standard_car" route="W_E" depart="172.0" departLane="random" departSpeed="10" />
    <vehicle id="N_S_89" type="standard_car" route="N_S" depart="174.0" departLane="random" departSpeed="10" />
    <vehicle id="W_S_90" type="standard_car" route="W_S" depart="176.0" departLane="random" departSpeed="10" />
    <vehicle id="W_N_91" type="standard_car" route="W_N" depart="178.0" departLane="random" departSpeed="10" />
    <vehicle id="E_W_92" type="standard_car" route="E_W" depart="179.0" departLane="random" departSpeed="10" />
    <vehicle id="N_S_93" type="standard_car" route="N_S" depart="179.0" departLane="random" departSpeed="10" />
    <vehicle id="N_S_94" type="standard_car" route="N_S" depart="180.0" departLane="random" departSpeed="10" />
    <vehicle id="S_E_95" type="standard_car" route="S_E" depart="180.0" departLane="random" departSpeed="10" />
    <vehicle id="N_S_96" type="standard_car" route="N_S" depart="183.0" departLane="random" departSpeed="10" />
    <vehicle id="S_N_97" type="standard_car" route="S_N" depart="184.0" departLane="random" departSpeed="10" />
    <vehicle id="S_E_98" type="standard_car" route="S_E" depart="186.0" departLane="random" departSpeed="10" />
    <vehicle id="N_S_99" type="standard_car" route="N_S" depart="188.0" departLane="random" departSpeed="10" />
    <vehicle id="S_N_100" type="standard_car" route="S_N" depart="190.0" departLane="random" departSpeed="10" />
    <vehicle id="E_S_101" type="standard_car" route="E_S" depart="190.0" departLane="random" departSpeed="10" />
    <vehicle id="N_S_102" type="standard_car" route="N_S" depart="191.0" departLane="random" departSpeed="10" />
    <vehicle id="W_E_103" type="standard_car" route="W_E" depart="191.0" departLane="random" departSpeed="10" />
    <vehicle id="E_W_104" type="standard_car" route="E_W" depart="193.0" departLane="random" departSpeed="10" />
    <vehicle id="E_W_105" type="standard_car" route="E_W" depart="193.0" departLane="random" departSpeed="10" />
    <vehicle id="E_W_106" type="standard_car" route="E_W" depart="193.0" departLane="random" departSpeed="10" />
    <vehicle id="N_S_107" type="standard_car" route="N_S" depart="193.0" departLane="random" departSpeed="10" />
    <vehicle id="E_N_108" type="standard_car" route="E_N" depart="194.0" departLane="random" departSpeed="10" />
    <vehicle id="E_N_109" type="standard_car" route="E_N" depart="195.0" departLane="random" departSpeed="10" />
    <vehicle id="S_N_110" type="standard_car" route="S_N" depart="195.0" departLane="random" departSpeed="10" />
    <vehicle id="N_S_111" type="standard_car" route="N_S" depart="195.0" departLane="random" departSpeed="10" />
    <vehicle id="W_E_112" type="standard_car" route="W_E" depart="197.0" departLane="random" departSpeed="10" />
    <vehicle id="E_S_113" type="standard_car" route="E_S" depart="197.0" departLane="random" departSpeed="10" />
    <vehicle id="N_S_114" type="standard_car" route="N_S" depart="198.0" departLane="random" departSpeed="10" />
    <vehicle id="E_W_115" type="standard_car" route="E_W" depart="198.0" departLane="random" departSpeed="10" />
    <vehicle id="S_E_116" type="standard_car" route="S_E" depart="200.0" departLane="random" departSpeed="10" />
    <vehicle id="E_W_117" type="standard_car" route="E_W" depart="201.0" departLane="random" departSpeed="10" />
    <vehicle id="S_W_118" type="standard_car" route="S_W" depart="203.0" departLane="random" departSpeed="10" />
    <vehicle id="W_E_119" type="standard_car" route="W_E" depart="203.0" departLane="random" departSpeed="10" />
    <vehicle id="S_E_120" type="standard_car" route="S_E" depart="203.0" departLane="random" departSpeed="10" />
    <vehicle id="S_N_121" type="standard_car" route="S_N" depart="203.0" departLane="random" departSpeed="10" />
    <vehicle id="E_S_122" type="standard_car" route="E_S" depart="204.0" departLane="random" departSpeed="10" />
    <vehicle id="N_E_123" type="standard_car" route="N_E" depart="205.0" departLane="random" departSpeed="10" />
    <vehicle id="N_S_124" type="standard_car" route="N_S" depart="206.0" departLane="random" departSpeed="10" />
    <vehicle id="N_S_125" type="standard_car" route="N_S" depart="208.0" departLane="random" departSpeed="10" />
    <vehicle id="W_N_126" type="standard_car" route="W_N" depart="209.0" departLane="random" departSpeed="10" />
    <vehicle id="S_N_127" type="standard_car" route="S_N" depart="211.0" departLane="random" departSpeed="10" />
    <vehicle id="S_N_128" type="standard_car" route="S_N" depart="211.0" departLane="random" departSpeed="10" />
    <vehicle id="S_W_129" type="standard_car" route="S_W" depart="213.0" departLane="random" departSpeed="10" />
    <vehicle id="E_W_130" type="standard_car" route="E_W" depart="214.0" departLane="random" departSpeed="10" />
    <vehicle id="N_S_131" type="standard_car" route="N_S" depart="214.0" departLane="random" departSpeed="10" />
    <vehicle id="W_E_132" type="standard_car" route="W_E" depart="215.0" departLane="random" departSpeed="10" />
    <vehicle id="S_N_133" type="standard_car" route="S_N" depart="216.0" departLane="random" departSpeed="10" />
    <vehicle id="E_S_134" type="standard_car" route="E_S" depart="216.0" departLane="random" departSpeed="10" />
    <vehicle id="S_N_135" type="standard_car" route="S_N" depart="216.0" departLane="random" departSpeed="10" />
    <vehicle id="W_E_136" type="standard_car" route="W_E" depart="216.0" departLane="random" departSpeed="10" />
    <vehicle id="N_S_137" type="standard_car" route="N_S" depart="217.0" departLane="random" departSpeed="10" />
    <vehicle id="W_E_138" type="standard_car" route="W_E" depart="217.0" departLane="random" departSpeed="10" />
    <vehicle id="W_S_139" type="standard_car" route="W_S" depart="218.0" departLane="random" departSpeed="10" />
    <vehicle id="S_N_140" type="standard_car" route="S_N" depart="218.0" departLane="random" departSpeed="10" />
    <vehicle id="E_N_141" type="standard_car" route="E_N" depart="219.0" departLane="random" departSpeed="10" />
    <vehicle id="N_S_142" type="standard_car" route="N_S" depart="219.0" departLane="random" departSpeed="10" />
    <vehicle id="E_S_143" type="standard_car" route="E_S" depart="220.0" departLane="random" departSpeed="10" />
    <vehicle id="W_E_144" type="standard_car" route="W_E" depart="221.0" departLane="random" departSpeed="10" />
    <vehicle id="S_E_145" type="standard_car" route="S_E" depart="222.0" departLane="random" departSpeed="10" />
    <vehicle id="E_W_146" type="standard_car" route="E_W" depart="223.0" departLane="random" departSpeed="10" />
    <vehicle id="N_S_147" type="standard_car" route="N_S" depart="224.0" departLane="random" departSpeed="10" />
    <vehicle id="S_W_148" type="standard_car" route="S_W" depart="225.0" departLane="random" departSpeed="10" />
    <vehicle id="S_E_149" type="standard_car" route="S_E" depart="226.0" departLane="random" departSpeed="10" />
    <vehicle id="N_S_150" type="standard_car" route="N_S" depart="227.0" departLane="random" departSpeed="10" />
    <vehicle id="W_N_151" type="standard_car" route="W_N" depart="227.0" departLane="random" departSpeed="10" />
    <vehicle id="S_N_152" type="standard_car" route="S_N" depart="227.0" departLane="random" departSpeed="10" />
    <vehicle id="W_E_153" type="standard_car" route="W_E" depart="229.0" departLane="random" departSpeed="10" />
    <vehicle id="N_S_154" type="standard_car" route="N_S" depart="230.0" departLane="random" departSpeed="10" />
    <vehicle id="W_E_155" type="standard_car" route="W_E" depart="231.0" departLane="random" departSpeed="10" />
    <vehicle id="E_W_156" type="standard_car" route="E_W" depart="231.0" departLane="random" departSpeed="10" />
    <vehicle id="S_N_157" type="standard_car" route="S_N" depart="231.0" departLane="random" departSpeed="10" />
    <vehicle id="E_W_158" type="standard_car" route="E_W" depart="232.0" departLane="random" departSpeed="10" />
    <vehicle id="W_E_159" type="standard_car" route="W_E" depart="232.0" departLane="random" departSpeed="10" />
    <vehicle id="N_S_160" type="standard_car" route="N_S" depart="232.0" departLane="random" departSpeed="10" />
    <vehicle id="W_E_161" type="standard_car" route="W_E" depart="233.0" departLane="random" departSpeed="10" />
    <vehicle id="W_E_162" type="standard_car" route="W_E" depart="234.0" departLane="random" departSpeed="10" />
    <vehicle id="E_W_163" type="standard_car" route="E_W" depart="234.0" departLane="random" departSpeed="10" />
    <vehicle id="E_N_164" type="standard_car" route="E_N" depart="234.0" departLane="random" departSpeed="10" />
    <vehicle id="S_N_165" type="standard_car" route="S_N" depart="237.0" departLane="random" departSpeed="10" />
    <vehicle id="W_E_166" type="standard_car" route="W_E" depart="239.0" departLane="random" departSpeed="10" />
    <vehicle id="W_N_167" type="standard_car" route="W_N" depart="241.0" departLane="random" departSpeed="10" />
    <vehicle id="N_S_168" type="standard_car" route="N_S" depart="242.0" departLane="random" departSpeed="10" />
    <vehicle id="W_N_169" type="standard_car" route="W_N" depart="242.0" departLane="random" departSpeed="10" />
    <vehicle id="W_E_170" type="standard_car" route="W_E" depart="244.0" departLane="random" departSpeed="10" />
    <vehicle id="N_E_171" type="standard_car" route="N_E" depart="245.0" departLane="random" departSpeed="10" />
    <vehicle id="N_E_172" type="standard_car" route="N_E" depart="246.0" departLane="random" departSpeed="10" />
    <vehicle id="S_N_173" type="standard_car" route="S_N" depart="247.0" departLane="random" departSpeed="10" />
    <vehicle id="N_E_174" type="standard_car" route="N_E" depart="247.0" departLane="random" departSpeed="10" />
    <vehicle id="S_W_175" type="standard_car" route="S_W" depart="248.0" departLane="random" departSpeed="10" />
    <vehicle id="E_W_176" type="standard_car" route="E_W" depart="248.0" departLane="random" departSpeed="10" />
    <vehicle id="W_E_177" type="standard_car" route="W_E" depart="249.0" departLane="random" departSpeed="10" />
    <vehicle id="W_N_178" type="standard_car" route="W_N" depart="249.0" departLane="random" departSpeed="10" />
    <vehicle id="W_E_179" type="standard_car" route="W_E" depart="249.0" departLane="random" departSpeed="10" />
    <vehicle id="S_W_180" type="standard_car" route="S_W" depart="250.0" departLane="random" departSpeed="10" />
    <vehicle id="E_W_181" type="standard_car" route="E_W" depart="250.0" departLane="random" departSpeed="10" />
    <vehicle id="S_W_182" type="standard_car" route="S_W" depart="251.0" departLane="random" departSpeed="10" />
    <vehicle id="W_E_183" type="standard_car" route="W_E" depart="252.0" departLane="random" departSpeed="10" />
    <vehicle id="E_W_184" type="standard_car" route="E_W" depart="252.0" departLane="random" departSpeed="10" />
    <vehicle id="N_S_185" type="standard_car" route="N_S" depart="253.0" departLane="random" departSpeed="10" />
    <vehicle id="N_S_186" type="standard_car" route="N_S" depart="253.0" departLane="random" departSpeed="10" />
    <vehicle id="N_S_187" type="standard_car" route="N_S" depart="254.0" departLane="random" departSpeed="10" />
    <vehicle id="W_E_188" type="standard_car" route="W_E" depart="255.0" departLane="random" departSpeed="10" />
    <vehicle id="S_N_189" type="standard_car" route="S_N" depart="256.0" departLane="random" departSpeed="10" />
    <vehicle id="W_S_190" type="standard_car" route="W_S" depart="256.0" departLane="random" departSpeed="10" />
    <vehicle id="E_W_191" type="standard_car" route="E_W" depart="258.0" departLane="random" departSpeed="10" />
    <vehicle id="E_W_192" type="standard_car" route="E_W" depart="258.0" departLane="random" departSpeed="10" />
    <vehicle id="N_W_193" type="standard_car" route="N_W" depart="258.0" departLane="random" departSpeed="10" />
    <vehicle id="W_E_194" type="standard_car" route="W_E" depart="258.0" departLane="random" departSpeed="10" />
    <vehicle id="N_S_195" type="standard_car" route="N_S" depart="260.0" departLane="random" departSpeed="10" />
    <vehicle id="S_N_196" type="standard_car" route="S_N" depart="260.0" departLane="random" departSpeed="10" />
    <vehicle id="E_W_197" type="standard_car" route="E_W" depart="260.0" departLane="random" departSpeed="10" />
    <vehicle id="W_E_198" type="standard_car" route="W_E" depart="261.0" departLane="random" departSpeed="10" />
    <vehicle id="W_E_199" type="standard_car" route="W_E" depart="261.0" departLane="random" departSpeed="10" />
    <vehicle id="N_S_200" type="standard_car" route="N_S" depart="261.0" departLane="random" departSpeed="10" />
    <vehicle id="N_W_201" type="standard_car" route="N_W" depart="262.0" departLane="random" departSpeed="10" />
    <vehicle id="N_W_202" type="standard_car" route="N_W" depart="262.0" departLane="random" departSpeed="10" />
    <vehicle id="E_W_203" type="standard_car" route="E_W" depart="262.0" departLane="random" departSpeed="10" />
    <vehicle id="S_W_204" type="standard_car" route="S_W" depart="264.0" departLane="random" departSpeed="10" />
    <vehicle id="E_W_205" type="standard_car" route="E_W" depart="266.0" departLane="random" departSpeed="10" />
    <vehicle id="W_E_206" type="standard_car" route="W_E" depart="266.0" departLane="random" departSpeed="10" />
    <vehicle id="S_N_207" type="standard_car" route="S_N" depart="267.0" departLane="random" departSpeed="10" />
    <vehicle id="S_N_208" type="standard_car" route="S_N" depart="268.0" departLane="random" departSpeed="10" />
    <vehicle id="S_N_209" type="standard_car" route="S_N" depart="268.0" departLane="random" departSpeed="10" />
    <vehicle id="N_S_210" type="standard_car" route="N_S" depart="268.0" departLane="random" departSpeed="10" />
    <vehicle id="E_W_211" type="standard_car" route="E_W" depart="268.0" departLane="random" departSpeed="10" />
    <vehicle id="S_E_212" type="standard_car" route="S_E" depart="268.0" departLane="random" departSpeed="10" />
    <vehicle id="N_S_213" type="standard_car" route="N_S" depart="271.0" departLane="random" departSpeed="10" />
    <vehicle id="E_W_214" type="standard_car" route="E_W" depart="273.0" departLane="random" departSpeed="10" />
    <vehicle id="E_W_215" type="standard_car" route="E_W" depart="274.0" departLane="random" departSpeed="10" />
    <vehicle id="N_W_216" type="standard_car" route="N_W" depart="275.0" departLane="random" departSpeed="10" />
    <vehicle id="N_S_217" type="standard_car" route="N_S" depart="275.0" departLane="random" departSpeed="10" />
    <vehicle id="W_E_218" type="standard_car" route="W_E" depart="275.0" departLane="random" departSpeed="10" />
    <vehicle id="W_E_219" type="standard_car" route="W_E" depart="276.0" departLane="random" departSpeed="10" />
    <vehicle id="W_N_220" type="standard_car" route="W_N" depart="276.0" departLane="random" departSpeed="10" />
    <vehicle id="E_W_221" type="standard_car" route="E_W" depart="279.0" departLane="random" departSpeed="10" />
    <vehicle id="W_E_222" type="standard_car" route="W_E" depart="281.0" departLane="random" departSpeed="10" />
    <vehicle id="W_E_223" type="standard_car" route="W_E" depart="282.0" departLane="random" departSpeed="10" />
    <vehicle id="N_E_224" type="standard_car" route="N_E" depart="283.0" departLane="random" departSpeed="10" />
    <vehicle id="W_E_225" type="standard_car" route="W_E" depart="283.0" departLane="random" departSpeed="10" />
    <vehicle id="S_E_226" type="standard_car" route="S_E" depart="285.0" departLane="random" departSpeed="10" />
    <vehicle id="E_W_227" type="standard_car" route="E_W" depart="286.0" departLane="random" departSpeed="10" />
    <vehicle id="W_E_228" type="standard_car" route="W_E" depart="287.0" departLane="random" departSpeed="10" />
    <vehicle id="S_N_229" type="standard_car" route="S_N" depart="287.0" departLane="random" departSpeed="10" />
    <vehicle id="W_N_230" type="standard_car" route="W_N" depart="288.0" departLane="random" departSpeed="10" />
    <vehicle id="S_N_231" type="standard_car" route="S_N" depart="288.0" departLane="random" departSpeed="10" />
    <vehicle id="W_E_232" type="standard_car" route="W_E" depart="288.0" departLane="random" departSpeed="10" />
    <vehicle id="W_S_233" type="standard_car" route="W_S" depart="288.0" departLane="random" departSpeed="10" />
    <vehicle id="E_W_234" type="standard_car" route="E_W" depart="289.0" departLane="random" departSpeed="10" />
    <vehicle id="N_E_235" type="standard_car" route="N_E" depart="291.0" departLane="random" departSpeed="10" />
    <vehicle id="S_E_236" type="standard_car" route="S_E" depart="291.0" departLane="random" departSpeed="10" />
    <vehicle id="E_W_237" type="standard_car" route="E_W" depart="292.0" departLane="random" departSpeed="10" />
    <vehicle id="W_N_238" type="standard_car" route="W_N" depart="292.0" departLane="random" departSpeed="10" />
    <vehicle id="S_W_239" type="standard_car" route="S_W" depart="292.0" departLane="random" departSpeed="10" />
    <vehicle id="N_S_240" type="standard_car" route="N_S" depart="295.0" departLane="random" departSpeed="10" />
    <vehicle id="E_W_241" type="standard_car" route="E_W" depart="296.0" departLane="random" departSpeed="10" />
    <vehicle id="E_W_242" type="standard_car" route="E_W" depart="296.0" departLane="random" departSpeed="10" />
    <vehicle id="W_E_243" type="standard_car" route="W_E" depart="297.0" departLane="random" departSpeed="10" />
    <vehicle id="S_N_244" type="standard_car" route="S_N" depart="298.0" departLane="random" departSpeed="10" />
    <vehicle id="E_W_245" type="standard_car" route="E_W" depart="299.0" departLane="random" departSpeed="10" />
    <vehicle id="W_E_246" type="standard_car" route="W_E" depart="299.0" departLane="random" departSpeed="10" />
    <vehicle id="E_W_247" type="standard_car" route="E_W" depart="300.0" departLane="random" departSpeed="10" />
    <vehicle id="N_W_248" type="standard_car" route="N_W" depart="300.0" departLane="random" departSpeed="10" />
    <vehicle id="E_W_249" type="standard_car" route="E_W" depart="300.0" departLane="random" departSpeed="10" />
    <vehicle id="W_S_250" type="standard_car" route="W_S" depart="300.0" departLane="random" departSpeed="10" />
    <vehicle id="S_W_251" type="standard_car" route="S_W" depart="301.0" departLane="random" departSpeed="10" />
    <vehicle id="E_W_252" type="standard_car" route="E_W" depart="301.0" departLane="random" departSpeed="10" />
    <vehicle id="N_S_253" type="standard_car" route="N_S" depart="302.0" departLane="random" departSpeed="10" />
    <vehicle id="W_E_254" type="standard_car" route="W_E" depart="302.0" departLane="random" departSpeed="10" />
    <vehicle id="W_E_255" type="standard_car" route="W_E" depart="302.0" departLane="random" departSpeed="10" />
    <vehicle id="S_N_256" type="standard_car" route="S_N" depart="303.0" departLane="random" departSpeed="10" />
    <vehicle id="S_N_257" type="standard_car" route="S_N" depart="303.0" departLane="random" departSpeed="10" />
    <vehicle id="N_W_258" type="standard_car" route="N_W" depart="303.0" departLane="random" departSpeed="10" />
    <vehicle id="W_E_259" type="standard_car" route="W_E" depart="304.0" departLane="random" departSpeed="10" />